data_105
_audit_creation_date              0000-00-00
_audit_creation_method            'LanYouShi'
_symmetry_space_group_name_H-M    'P1'
_cell_length_a                    54.9031982
_cell_length_b                    44.7327003
_cell_length_c                    43.9878006
_cell_angle_alpha                 90.6411972
_cell_angle_beta                  66.0793991
_cell_angle_gamma                 114.3142014
loop_
_atom_site_label
_atom_site_type_symbol
_atom_site_fract_x
_atom_site_fract_y
_atom_site_fract_z
_atom_site_U_iso_or_equiv
_atom_site_adp_type
_atom_site_occupancy
        C1          C  0.3651094  0.2922464  0.5735716    0.00000       Uiso       1.00
        C2          C  0.3765711  0.3074020  0.5400022    0.00000       Uiso       1.00
        C3          C  0.3991813  0.3409181  0.5274421    0.00000       Uiso       1.00
        C4          C  0.3764741  0.3103382  0.5947771    0.00000       Uiso       1.00
        C5          C  0.3990808  0.3438885  0.5827892    0.00000       Uiso       1.00
        C6          C  0.4105151  0.3592770  0.5489361    0.00000       Uiso       1.00
        H1          H  0.3674353  0.2983359  0.6222038    0.00000       Uiso       1.00
        H2          H  0.3676124  0.2929824  0.5223332    0.00000       Uiso       1.00
        C7          C  0.6361448  0.5613130  0.2903067    0.00000       Uiso       1.00
        C8          C  0.6248273  0.5292813  0.3081889    0.00000       Uiso       1.00
        C9          C  0.6020213  0.5186597  0.3420319    0.00000       Uiso       1.00
       C10          C  0.6244412  0.5828719  0.3059585    0.00000       Uiso       1.00
       C11          C  0.6016298  0.5728067  0.3397757    0.00000       Uiso       1.00
       C12          C  0.5903406  0.5405253  0.3579252    0.00000       Uiso       1.00
        H3          H  0.6333587  0.6090556  0.2917141    0.00000       Uiso       1.00
        H4          H  0.6340626  0.5113443  0.2957808    0.00000       Uiso       1.00
       C13          C  0.6356417  0.5765259  0.5741075    0.00000       Uiso       1.00
       C14          C  0.6239772  0.5969019  0.5676904    0.00000       Uiso       1.00
       C15          C  0.6012489  0.5844286  0.5565634    0.00000       Uiso       1.00
       C16          C  0.6243633  0.5433112  0.5699209    0.00000       Uiso       1.00
       C17          C  0.6016350  0.5302795  0.5588217    0.00000       Uiso       1.00
       C18          C  0.5899969  0.5509341  0.5521100    0.00000       Uiso       1.00
        H5          H  0.6335675  0.5263183  0.5751248    0.00000       Uiso       1.00
        H6          H  0.6328635  0.6240296  0.5710581    0.00000       Uiso       1.00
       C19          C  0.3631090  0.5699112  0.5620153    0.00000       Uiso       1.00
       C20          C  0.3746293  0.5664114  0.5841195    0.00000       Uiso       1.00
       C21          C  0.3975560  0.5559890  0.5739605    0.00000       Uiso       1.00
       C22          C  0.3747264  0.5634753  0.5293446    0.00000       Uiso       1.00
       C23          C  0.3976508  0.5530182  0.5186188    0.00000       Uiso       1.00
       C24          C  0.4091469  0.5492599  0.5410309    0.00000       Uiso       1.00
       C25          C  0.5000011  0.4999997  0.5000002    0.00000       Uiso       1.00
        H7          H  0.3656434  0.5662868  0.5109584    0.00000       Uiso       1.00
        H8          H  0.3654664  0.5716403  0.6108289    0.00000       Uiso       1.00
       C26          C  0.5900074  0.5944739  0.3559869    0.00000       Uiso       1.00
       C27          C  0.5677012  0.5843763  0.3896580    0.00000       Uiso       1.00
        H9          H  0.5593968  0.6017879  0.4014111    0.00000       Uiso       1.00
       H10          H  0.5983142  0.6193932  0.3426509    0.00000       Uiso       1.00
       C28          C  0.4330538  0.3930686  0.5366825    0.00000       Uiso       1.00
       C29          C  0.4441407  0.4085529  0.5030147    0.00000       Uiso       1.00
       C30          C  0.4661047  0.4423479  0.4911987    0.00000       Uiso       1.00
       C31          C  0.4440356  0.4115222  0.5583156    0.00000       Uiso       1.00
       C32          C  0.4659975  0.4452980  0.5461785    0.00000       Uiso       1.00
       C33          C  0.4782390  0.4613549  0.5120981    0.00000       Uiso       1.00
       H11          H  0.5273682  0.4641496  0.4582840    0.00000       Uiso       1.00
       H12          H  0.5272665  0.4673887  0.5188019    0.00000       Uiso       1.00
       C34          C  0.5675969  0.5302339  0.3920242    0.00000       Uiso       1.00
       C35          C  0.5566607  0.4981696  0.4102777    0.00000       Uiso       1.00
       C36          C  0.5344977  0.4883459  0.4443706    0.00000       Uiso       1.00
       C37          C  0.5562642  0.5522673  0.4080215    0.00000       Uiso       1.00
       C38          C  0.5341009  0.5421265  0.4421271    0.00000       Uiso       1.00
       C39          C  0.5220111  0.5096334  0.4609302    0.00000       Uiso       1.00
       H13          H  0.4733446  0.4541005  0.4657071    0.00000       Uiso       1.00
       H14          H  0.4729040  0.5132931  0.4632560    0.00000       Uiso       1.00
       C40          C  0.5673352  0.5382024  0.5406622    0.00000       Uiso       1.00
       C41          C  0.5560517  0.5589982  0.5334918    0.00000       Uiso       1.00
       C42          C  0.5339733  0.5463825  0.5214670    0.00000       Uiso       1.00
       C43          C  0.5564340  0.5048938  0.5357548    0.00000       Uiso       1.00
       C44          C  0.5343508  0.4925926  0.5237240    0.00000       Uiso       1.00
       C45          C  0.5219112  0.5126438  0.5171596    0.00000       Uiso       1.00
       H15          H  0.4727379  0.5185658  0.5611932    0.00000       Uiso       1.00
       H16          H  0.4731531  0.4593470  0.5636553    0.00000       Uiso       1.00
       C46          C  0.4320092  0.5384908  0.5306325    0.00000       Uiso       1.00
       C47          C  0.4431596  0.5342841  0.5532060    0.00000       Uiso       1.00
       C48          C  0.4654458  0.5229340  0.5429488    0.00000       Uiso       1.00
       C49          C  0.4432500  0.5313080  0.4979145    0.00000       Uiso       1.00
       C50          C  0.4655347  0.5199721  0.4879797    0.00000       Uiso       1.00
       C51          C  0.4778417  0.5163669  0.5098136    0.00000       Uiso       1.00
       H17          H  0.5265875  0.5632142  0.5147744    0.00000       Uiso       1.00
       H18          H  0.5266666  0.5599651  0.4542877    0.00000       Uiso       1.00
       C52          C  0.5682160  0.4845584  0.5425339    0.00000       Uiso       1.00
       C53          C  0.5904410  0.4970429  0.5539908    0.00000       Uiso       1.00
       C54          C  0.5674552  0.5923396  0.5380277    0.00000       Uiso       1.00
       C55          C  0.5896769  0.6048522  0.5494902    0.00000       Uiso       1.00
       C56          C  0.4326580  0.3899856  0.4818468    0.00000       Uiso       1.00
       C57          C  0.4105525  0.3566150  0.4938577    0.00000       Uiso       1.00
       C58          C  0.4324552  0.3959008  0.5920066    0.00000       Uiso       1.00
       C59          C  0.4103527  0.3625331  0.6040482    0.00000       Uiso       1.00
       C60          C  0.4316047  0.5351509  0.4758117    0.00000       Uiso       1.00
       C61          C  0.4091834  0.5459391  0.4859838    0.00000       Uiso       1.00
       C62          C  0.4314228  0.5410745  0.5859593    0.00000       Uiso       1.00
       C63          C  0.4089980  0.5518579  0.5961629    0.00000       Uiso       1.00
       C64          C  0.5684881  0.4766101  0.3941508    0.00000       Uiso       1.00
       C65          C  0.5907901  0.4866742  0.3604819    0.00000       Uiso       1.00
       H19          H  0.4007137  0.5485668  0.4683204    0.00000       Uiso       1.00
       H20          H  0.4398360  0.5297292  0.4505587    0.00000       Uiso       1.00
       H21          H  0.4004550  0.5568002  0.6215838    0.00000       Uiso       1.00
       H22          H  0.4395784  0.5379734  0.6037981    0.00000       Uiso       1.00
       H23          H  0.5602533  0.4588946  0.5388970    0.00000       Uiso       1.00
       H24          H  0.5990268  0.4806913  0.5589013    0.00000       Uiso       1.00
       H25          H  0.5591920  0.6088392  0.5326231    0.00000       Uiso       1.00
       H26          H  0.5979658  0.6306576  0.5526416    0.00000       Uiso       1.00
       H27          H  0.5604979  0.4518663  0.4076537    0.00000       Uiso       1.00
       H28          H  0.5994020  0.4694349  0.3489047    0.00000       Uiso       1.00
       H29          H  0.4019241  0.3513344  0.6301443    0.00000       Uiso       1.00
       H30          H  0.4404868  0.4095672  0.6091496    0.00000       Uiso       1.00
       H31          H  0.4407728  0.4013469  0.4558927    0.00000       Uiso       1.00
       H32          H  0.4021986  0.3431005  0.4768654    0.00000       Uiso       1.00
       C66          C  0.1280191  0.6719831  0.6905429    0.00000       Uiso       1.00
       C67          C  0.1168197  0.6786846  0.7231641    0.00000       Uiso       1.00
       C68          C  0.0944708  0.6900309  0.7339072    0.00000       Uiso       1.00
       C69          C  0.1166471  0.6761139  0.6685042    0.00000       Uiso       1.00
       C70          C  0.0942987  0.6874393  0.6786759    0.00000       Uiso       1.00
       C71          C  0.0831314  0.6944317  0.7115574    0.00000       Uiso       1.00
       H33          H  0.1254730  0.6706807  0.6418362    0.00000       Uiso       1.00
       H34          H  0.1257878  0.6753678  0.7414970    0.00000       Uiso       1.00
       C72          C  0.8593435  0.6886790  0.9625588    0.00000       Uiso       1.00
       C73          C  0.8702926  0.6665320  0.9469796    0.00000       Uiso       1.00
       C74          C  0.8929811  0.6761395  0.9131157    0.00000       Uiso       1.00
       C75          C  0.8713032  0.7208379  0.9445570    0.00000       Uiso       1.00
       C76          C  0.8940036  0.7310110  0.9106705    0.00000       Uiso       1.00
       C77          C  0.9049199  0.7085571  0.8948488    0.00000       Uiso       1.00
       H35          H  0.8626875  0.7392504  0.9569043    0.00000       Uiso       1.00
       H36          H  0.8608449  0.6402349  0.9613214    0.00000       Uiso       1.00
       C78          C  0.8584488  0.6753596  0.6793540    0.00000       Uiso       1.00
       C79          C  0.8704781  0.7085544  0.6833746    0.00000       Uiso       1.00
       C80          C  0.8933168  0.7208344  0.6943380    0.00000       Uiso       1.00
       C81          C  0.8694675  0.6542484  0.6857973    0.00000       Uiso       1.00
       C82          C  0.8922998  0.6659662  0.6967810    0.00000       Uiso       1.00
       C83          C  0.9043071  0.6994426  0.7010717    0.00000       Uiso       1.00
       H37          H  0.8599644  0.6271247  0.6825640    0.00000       Uiso       1.00
       H38          H  0.8618069  0.7261402  0.6781469    0.00000       Uiso       1.00
       C84          C  0.1332552  0.9533541  0.6779909    0.00000       Uiso       1.00
       C85          C  0.1214760  0.9356049  0.6569282    0.00000       Uiso       1.00
       C86          C  0.0982952  0.9023675  0.6690890    0.00000       Uiso       1.00
       C87          C  0.1216486  0.9381756  0.7115881    0.00000       Uiso       1.00
       C88          C  0.0984729  0.9049640  0.7243147    0.00000       Uiso       1.00
       C89          C  0.0867135  0.8869496  0.7029673    0.00000       Uiso       1.00
       C90          C  0.9947672  0.7473447  0.7526116    0.00000       Uiso       1.00
       H39          H  0.1309416  0.9523200  0.7291421    0.00000       Uiso       1.00
       H40          H  0.1306268  0.9476330  0.6294812    0.00000       Uiso       1.00
       C91          C  0.9058796  0.7631366  0.8921079    0.00000       Uiso       1.00
       C92          C  0.9280710  0.7727669  0.8583950    0.00000       Uiso       1.00
       H41          H  0.9365776  0.7976369  0.8447967    0.00000       Uiso       1.00
       H42          H  0.8978603  0.7808245  0.9036306    0.00000       Uiso       1.00
       C93          C  0.0608558  0.7060968  0.7219687    0.00000       Uiso       1.00
       C94          C  0.0500388  0.7135272  0.7546401    0.00000       Uiso       1.00
       C95          C  0.0283404  0.7257485  0.7645871    0.00000       Uiso       1.00
       C96          C  0.0498717  0.7109442  0.6994545    0.00000       Uiso       1.00
       C97          C  0.0281770  0.7231813  0.7097221    0.00000       Uiso       1.00
       C98          C  0.0162045  0.7300271  0.7428129    0.00000       Uiso       1.00
       H43          H  0.9669950  0.6872555  0.7985333    0.00000       Uiso       1.00
       H44          H  0.9667985  0.6844045  0.7381431    0.00000       Uiso       1.00
       C99          C  0.9275479  0.7184043  0.8607052    0.00000       Uiso       1.00
      C100          C  0.9381102  0.6957902  0.8447797    0.00000       Uiso       1.00
      C101          C  0.9601580  0.7055026  0.8106316    0.00000       Uiso       1.00
      C102          C  0.9391371  0.7506174  0.8423384    0.00000       Uiso       1.00
      C103          C  0.9611816  0.7600114  0.8082050    0.00000       Uiso       1.00
      C104          C  0.9728991  0.7381108  0.7917115    0.00000       Uiso       1.00
       H45          H  0.0213148  0.7326037  0.7892627    0.00000       Uiso       1.00
       H46          H  0.0224453  0.7925998  0.7865738    0.00000       Uiso       1.00
      C105          C  0.9270775  0.7114275  0.7123793    0.00000       Uiso       1.00
      C106          C  0.9387316  0.7447237  0.7171316    0.00000       Uiso       1.00
      C107          C  0.9609184  0.7562773  0.7290321    0.00000       Uiso       1.00
      C108          C  0.9377188  0.6899038  0.7195660    0.00000       Uiso       1.00
      C109          C  0.9599140  0.7017779  0.7314450    0.00000       Uiso       1.00
      C110          C  0.9727220  0.7354684  0.7356005    0.00000       Uiso       1.00
       H47          H  0.0221292  0.7880185  0.6888407    0.00000       Uiso       1.00
       H48          H  0.0210241  0.7280216  0.6915197    0.00000       Uiso       1.00
      C111          C  0.0635950  0.8534564  0.7153925    0.00000       Uiso       1.00
      C112          C  0.0521782  0.8353359  0.6939058    0.00000       Uiso       1.00
      C113          C  0.0296333  0.8018454  0.7062113    0.00000       Uiso       1.00
      C114          C  0.0523601  0.8379265  0.7490818    0.00000       Uiso       1.00
      C115          C  0.0298150  0.8044188  0.7610658    0.00000       Uiso       1.00
      C116          C  0.0172428  0.7857739  0.7403209    0.00000       Uiso       1.00
       H49          H  0.9685944  0.7815014  0.7338508    0.00000       Uiso       1.00
       H50          H  0.9688134  0.7843625  0.7942097    0.00000       Uiso       1.00
      C117          C  0.9255695  0.6565905  0.7151881    0.00000       Uiso       1.00
      C118          C  0.9032366  0.6448113  0.7038705    0.00000       Uiso       1.00
      C119          C  0.9275863  0.7657960  0.7103369    0.00000       Uiso       1.00
      C120          C  0.9052570  0.7540478  0.6990111    0.00000       Uiso       1.00
      C121          C  0.0615242  0.7090392  0.7766764    0.00000       Uiso       1.00
      C122          C  0.0833690  0.6973701  0.7664921    0.00000       Uiso       1.00
      C123          C  0.0611847  0.7038872  0.6667467    0.00000       Uiso       1.00
      C124          C  0.0830263  0.6922147  0.6565317    0.00000       Uiso       1.00
      C125          C  0.0642691  0.8561491  0.7701071    0.00000       Uiso       1.00
      C126          C  0.0869444  0.8892259  0.7579275    0.00000       Uiso       1.00
      C127          C  0.0639087  0.8509849  0.6601898    0.00000       Uiso       1.00
      C128          C  0.0865872  0.8840575  0.6479793    0.00000       Uiso       1.00
      C129          C  0.9260281  0.6635505  0.8632597    0.00000       Uiso       1.00
      C130          C  0.9038406  0.6538910  0.8969730    0.00000       Uiso       1.00
       H51          H  0.0956129  0.9024745  0.7748109    0.00000       Uiso       1.00
       H52          H  0.0560474  0.8447474  0.7960765    0.00000       Uiso       1.00
       H53          H  0.0951169  0.8952860  0.6218684    0.00000       Uiso       1.00
       H54          H  0.0555506  0.8375709  0.6431570    0.00000       Uiso       1.00
       H55          H  0.9333276  0.6395382  0.7206045    0.00000       Uiso       1.00
       H56          H  0.8943659  0.6190029  0.7008418    0.00000       Uiso       1.00
       H57          H  0.9361362  0.7914678  0.7138601    0.00000       Uiso       1.00
       H58          H  0.8971744  0.7709526  0.6940814    0.00000       Uiso       1.00
       H59          H  0.9337292  0.6456921  0.8515722    0.00000       Uiso       1.00
       H60          H  0.8950250  0.6288558  0.9103975    0.00000       Uiso       1.00
       H61          H  0.0912534  0.6870884  0.6311471    0.00000       Uiso       1.00
       H62          H  0.0531459  0.7074675  0.6489536    0.00000       Uiso       1.00
       H63          H  0.0536145  0.7146400  0.8018898    0.00000       Uiso       1.00
       H64          H  0.0917337  0.6942617  0.7841058    0.00000       Uiso       1.00
      C131          C  0.7870653  0.6733743  0.6422005    0.00000       Uiso       1.00
      C132          C  0.7668266  0.6494539  0.6348527    0.00000       Uiso       1.00
      C133          C  0.7139077  0.6404828  0.6045785    0.00000       Uiso       1.00
      C134          C  0.7302478  0.6330082  0.6160417    0.00000       Uiso       1.00
       H65          H  0.7908858  0.6991951  0.6391886    0.00000       Uiso       1.00
       H66          H  0.7164274  0.6657189  0.6008977    0.00000       Uiso       1.00
        O1          O  0.6759059  0.6195310  0.5858340    0.00000       Uiso       1.00
      C135          C  0.8028634  0.6650115  0.6535180    0.00000       Uiso       1.00
        O2          O  0.8240501  0.6861361  0.6620185    0.00000       Uiso       1.00
      C136          C  0.6940414  0.6160856  0.5975553    0.00000       Uiso       1.00
      C137          C  0.7504864  0.6569285  0.6233895    0.00000       Uiso       1.00
        O3          O  0.8171004  0.6301712  0.6693546    0.00000       Uiso       1.00
      C138          C  0.6901429  0.5846907  0.6016707    0.00000       Uiso       1.00
        O4          O  0.6689562  0.5635663  0.5931702    0.00000       Uiso       1.00
      C139          C  0.7989649  0.6336167  0.6576334    0.00000       Uiso       1.00
        B1          B  0.8324633  0.6634985  0.6718001    0.00000       Uiso       1.00
      C140          C  0.7425199  0.5927738  0.6317992    0.00000       Uiso       1.00
      C141          C  0.7059410  0.5763281  0.6129882    0.00000       Uiso       1.00
      C142          C  0.7261797  0.6002484  0.6203360    0.00000       Uiso       1.00
      C143          C  0.7790986  0.6092195  0.6506101    0.00000       Uiso       1.00
      C144          C  0.7627585  0.6166941  0.6391470    0.00000       Uiso       1.00
        B2          B  0.6605430  0.5862038  0.5833886    0.00000       Uiso       1.00
       H67          H  0.7021204  0.5505072  0.6160001    0.00000       Uiso       1.00
       H68          H  0.7765790  0.5839835  0.6542910    0.00000       Uiso       1.00
      C145          C  0.7882549  0.6184078  0.0707883    0.00000       Uiso       1.00
      C146          C  0.7677703  0.6216745  0.0984519    0.00000       Uiso       1.00
      C147          C  0.7149538  0.5770198  0.1814748    0.00000       Uiso       1.00
      C148          C  0.7311198  0.6009805  0.1537952    0.00000       Uiso       1.00
       H69          H  0.7924182  0.5966361  0.0698172    0.00000       Uiso       1.00
       H70          H  0.7178137  0.5545121  0.1824720    0.00000       Uiso       1.00
        O5          O  0.6768238  0.5593598  0.2381996    0.00000       Uiso       1.00
      C149          C  0.8038689  0.6427017  0.0438000    0.00000       Uiso       1.00
        O6          O  0.8252584  0.6431705  0.0140593    0.00000       Uiso       1.00
      C150          C  0.6948335  0.5811369  0.2084463    0.00000       Uiso       1.00
      C151          C  0.7516044  0.5977138  0.1261315    0.00000       Uiso       1.00
        O7          O  0.8175601  0.6917063  0.0140307    0.00000       Uiso       1.00
      C152          C  0.6905150  0.6083644  0.2084303    0.00000       Uiso       1.00
        O8          O  0.6691254  0.6078955  0.2381710    0.00000       Uiso       1.00
      C153          C  0.7995503  0.6699291  0.0437840    0.00000       Uiso       1.00
        B3          B  0.8333204  0.6741630  0.9960583    0.00000       Uiso       1.00
      C154          C  0.7427795  0.6533523  0.1260988    0.00000       Uiso       1.00
      C155          C  0.7061289  0.6326583  0.1814421    0.00000       Uiso       1.00
      C156          C  0.7266135  0.6293916  0.1537784    0.00000       Uiso       1.00
      C157          C  0.7794300  0.6740463  0.0707555    0.00000       Uiso       1.00
      C158          C  0.7632640  0.6500856  0.0984352    0.00000       Uiso       1.00
        B4          B  0.6610632  0.5769021  0.2561719    0.00000       Uiso       1.00
       H71          H  0.7019656  0.6544300  0.1824132    0.00000       Uiso       1.00
       H72          H  0.7765701  0.6965539  0.0697584    0.00000       Uiso       1.00
      C159          C  0.2932074  0.5993570  0.5831429    0.00000       Uiso       1.00
      C160          C  0.2704317  0.6089670  0.5903227    0.00000       Uiso       1.00
       H73          H  0.3034497  0.5938950  0.5583542    0.00000       Uiso       1.00
      C161          C  0.2608087  0.6115708  0.5658204    0.00000       Uiso       1.00
        N1          N  0.3397000  0.5798931  0.5713741    0.00000       Uiso       1.00
      C162          C  0.2570295  0.6161042  0.6225708    0.00000       Uiso       1.00
      C163          C  0.3027697  0.5967872  0.6078212    0.00000       Uiso       1.00
      C164          C  0.3267286  0.5867019  0.6007190    0.00000       Uiso       1.00
       H74          H  0.3333452  0.5850671  0.6205106    0.00000       Uiso       1.00
       H75          H  0.2708654  0.6061792  0.5409461    0.00000       Uiso       1.00
      C165          C  0.2018040  0.6379638  0.6127085    0.00000       Uiso       1.00
      C166          C  0.2246027  0.6283240  0.6051450    0.00000       Uiso       1.00
      C167          C  0.2380847  0.6211689  0.5731704    0.00000       Uiso       1.00
        N2          N  0.1514280  0.6620012  0.6811842    0.00000       Uiso       1.00
      C168          C  0.2340983  0.6257898  0.6299876    0.00000       Uiso       1.00
      C169          C  0.1883581  0.6451069  0.6447372    0.00000       Uiso       1.00
      C170          C  0.1643993  0.6551923  0.6518393    0.00000       Uiso       1.00
       H76          H  0.1577827  0.6568272  0.6320477    0.00000       Uiso       1.00
       H77          H  0.2310492  0.6229969  0.5538261    0.00000       Uiso       1.00
      C171          C  0.1979203  0.6425368  0.6694155    0.00000       Uiso       1.00
      C172          C  0.2206960  0.6329268  0.6622357    0.00000       Uiso       1.00
      C173          C  0.2303187  0.6303228  0.6867381    0.00000       Uiso       1.00
       H78          H  0.2202618  0.6357139  0.7116125    0.00000       Uiso       1.00
      C174          C  0.2893239  0.6039302  0.6398498    0.00000       Uiso       1.00
      C175          C  0.2665250  0.6135699  0.6474134    0.00000       Uiso       1.00
      C176          C  0.2530428  0.6207247  0.6793881    0.00000       Uiso       1.00
       H79          H  0.2600783  0.6188965  0.6987324    0.00000       Uiso       1.00
      C177          C  0.2961096  0.1923541  0.6217384    0.00000       Uiso       1.00
      C178          C  0.2736288  0.1597914  0.6371360    0.00000       Uiso       1.00
       H80          H  0.3061433  0.2080995  0.6364119    0.00000       Uiso       1.00
      C179          C  0.2640333  0.1474406  0.6712259    0.00000       Uiso       1.00
        N3          N  0.3420104  0.2586771  0.5874144    0.00000       Uiso       1.00
      C180          C  0.2604989  0.1391979  0.6181241    0.00000       Uiso       1.00
      C181          C  0.3056457  0.2046101  0.5875324    0.00000       Uiso       1.00
      C182          C  0.3292960  0.2388413  0.5708835    0.00000       Uiso       1.00
       H81          H  0.3359041  0.2471833  0.5444945    0.00000       Uiso       1.00
       H82          H  0.2738834  0.1629283  0.6861691    0.00000       Uiso       1.00
      C183          C  0.2058922  0.0616348  0.6827789    0.00000       Uiso       1.00
      C184          C  0.2283945  0.0942498  0.6677428    0.00000       Uiso       1.00
      C185          C  0.2416042  0.1149422  0.6864017    0.00000       Uiso       1.00
        N4          N  0.1563541  0.9869234  0.6641480    0.00000       Uiso       1.00
      C186          C  0.2378652  0.1064032  0.6334385    0.00000       Uiso       1.00
      C187          C  0.1927184  0.0409910  0.6640301    0.00000       Uiso       1.00
      C188          C  0.1690683  0.0067597  0.6806790    0.00000       Uiso       1.00
       H83          H  0.1624603  0.9984173  0.7070680    0.00000       Uiso       1.00
       H84          H  0.2345838  0.1059854  0.7127582    0.00000       Uiso       1.00
      C189          C  0.2022544  0.0532471  0.6298242    0.00000       Uiso       1.00
      C190          C  0.2247352  0.0858098  0.6144266    0.00000       Uiso       1.00
      C191          C  0.2343305  0.0981607  0.5803369    0.00000       Uiso       1.00
       H85          H  0.2244802  0.0826731  0.5653937    0.00000       Uiso       1.00
      C192          C  0.2924719  0.1839663  0.5687836    0.00000       Uiso       1.00
      C193          C  0.2699696  0.1513513  0.5838197    0.00000       Uiso       1.00
      C194          C  0.2567597  0.1306591  0.5651610    0.00000       Uiso       1.00
       H86          H  0.2637800  0.1396159  0.5388046    0.00000       Uiso       1.00
        S1          S  0.7557790  0.6995493  0.6178026    0.00000       Uiso       1.00
        O9          O  0.7363703  0.7049419  0.6483796    0.00000       Uiso       1.00
       O10          O  0.7859938  0.7219608  0.6097730    0.00000       Uiso       1.00
       O11          O  0.7486773  0.7058608  0.5887191    0.00000       Uiso       1.00
       H87          H  0.7514910  0.7284668  0.5857307    0.00000       Uiso       1.00
        S2          S  0.7372272  0.5501530  0.6373861    0.00000       Uiso       1.00
       O12          O  0.7566098  0.5447487  0.6067957    0.00000       Uiso       1.00
       O13          O  0.7438590  0.5443076  0.6643643    0.00000       Uiso       1.00
       O14          O  0.7046789  0.5260150  0.6460792    0.00000       Uiso       1.00
       H88          H  0.7018506  0.5034024  0.6490601    0.00000       Uiso       1.00
        S3          S  0.7574672  0.5607507  0.1261533    0.00000       Uiso       1.00
       O15          O  0.7383367  0.5358122  0.1148026    0.00000       Uiso       1.00
       O16          O  0.7878039  0.5690490  0.1039752    0.00000       Uiso       1.00
       O17          O  0.7504189  0.5472627  0.1622960    0.00000       Uiso       1.00
       H89          H  0.7535349  0.5276640  0.1623262    0.00000       Uiso       1.00
        S4          S  0.7369167  0.6903154  0.1260770    0.00000       Uiso       1.00
       O18          O  0.7560210  0.7152391  0.1374672    0.00000       Uiso       1.00
       O19          O  0.7434987  0.7028625  0.0925068    0.00000       Uiso       1.00
       O20          O  0.7042371  0.6813718  0.1499245    0.00000       Uiso       1.00
       H90          H  0.7011064  0.7009622  0.1499164    0.00000       Uiso       1.00
        N5          N  0.1843171  0.6497908  0.7023381    0.00000       Uiso       1.00
       O21          O  0.1794939  0.6760709  0.7053686    0.00000       Uiso       1.00
       O22          O  0.1766184  0.6301880  0.7296129    0.00000       Uiso       1.00
        N6          N  0.1920857  0.6405642  0.5874085    0.00000       Uiso       1.00
       O23          O  0.1638549  0.6282512  0.5951816    0.00000       Uiso       1.00
       O24          O  0.2113708  0.6552709  0.5563467    0.00000       Uiso       1.00
        N7          N  0.2990421  0.6013299  0.6651499    0.00000       Uiso       1.00
       O25          O  0.3033065  0.5757192  0.6704940    0.00000       Uiso       1.00
       O26          O  0.3037235  0.6245470  0.6830944    0.00000       Uiso       1.00
        N8          N  0.1889282  0.0323354  0.6103360    0.00000       Uiso       1.00
       O27          O  0.1845228  0.0013748  0.6119095    0.00000       Uiso       1.00
       O28          O  0.1810669  0.0440466  0.5908237    0.00000       Uiso       1.00
        N9          N  0.1961999  0.0491899  0.7177625    0.00000       Uiso       1.00
       O29          O  0.1679807  0.0328732  0.7381508    0.00000       Uiso       1.00
       O30          O  0.2154972  0.0540510  0.7295764    0.00000       Uiso       1.00
       N10          N  0.3021643  0.1964112  0.5338001    0.00000       Uiso       1.00
       O31          O  0.3060472  0.2261539  0.5243916    0.00000       Uiso       1.00
       O32          O  0.3072034  0.1781240  0.5110062    0.00000       Uiso       1.00
