data_106
_audit_creation_date              0000-00-00
_audit_creation_method            'LanYouShi'
_symmetry_space_group_name_H-M    'P1'
_cell_length_a                    55.1908989
_cell_length_b                    43.9878006
_cell_length_c                    43.9726982
_cell_angle_alpha                 96.0523987
_cell_angle_beta                  116.1112976
_cell_angle_gamma                 63.8442001
loop_
_atom_site_label
_atom_site_type_symbol
_atom_site_fract_x
_atom_site_fract_y
_atom_site_fract_z
_atom_site_U_iso_or_equiv
_atom_site_adp_type
_atom_site_occupancy
        C1          C  0.3637238  0.5607309  0.2883278    0.00000       Uiso       1.00
        C2          C  0.3753040  0.5280114  0.3037596    0.00000       Uiso       1.00
        C3          C  0.3981465  0.5174775  0.3379028    0.00000       Uiso       1.00
        C4          C  0.3752049  0.5830752  0.3067633    0.00000       Uiso       1.00
        C5          C  0.3980440  0.5731169  0.3409414    0.00000       Uiso       1.00
        C6          C  0.4095964  0.5401376  0.3566115    0.00000       Uiso       1.00
        H1          H  0.3660728  0.6098267  0.2945421    0.00000       Uiso       1.00
        H2          H  0.3662534  0.5094295  0.2890655    0.00000       Uiso       1.00
        C7          C  0.6375860  0.2889366  0.5618898    0.00000       Uiso       1.00
        C8          C  0.6261567  0.3043312  0.5291969    0.00000       Uiso       1.00
        C9          C  0.6031093  0.3383698  0.5184707    0.00000       Uiso       1.00
       C10          C  0.6257502  0.3072976  0.5840101    0.00000       Uiso       1.00
       C11          C  0.6026971  0.3413645  0.5738530    0.00000       Uiso       1.00
       C12          C  0.5912965  0.3570008  0.5409045    0.00000       Uiso       1.00
        H3          H  0.6347555  0.2951046  0.6107363    0.00000       Uiso       1.00
        H4          H  0.6354966  0.2896959  0.5107958    0.00000       Uiso       1.00
       C13          C  0.6370727  0.5742339  0.5774525    0.00000       Uiso       1.00
       C14          C  0.6252769  0.5704097  0.5983625    0.00000       Uiso       1.00
       C15          C  0.6023085  0.5592953  0.5857421    0.00000       Uiso       1.00
       C16          C  0.6256834  0.5674432  0.5435493    0.00000       Uiso       1.00
       C17          C  0.6027151  0.5563028  0.5303575    0.00000       Uiso       1.00
       C18          C  0.5909459  0.5522095  0.5515525    0.00000       Uiso       1.00
        H5          H  0.6349914  0.5705128  0.5261140    0.00000       Uiso       1.00
        H6          H  0.6342503  0.5759215  0.6260545    0.00000       Uiso       1.00
       C19          C  0.3616177  0.5761008  0.5723273    0.00000       Uiso       1.00
       C20          C  0.3732627  0.5972499  0.5686784    0.00000       Uiso       1.00
       C21          C  0.3964386  0.5848562  0.5578807    0.00000       Uiso       1.00
       C22          C  0.3733617  0.5421861  0.5656747    0.00000       Uiso       1.00
       C23          C  0.3965353  0.5292224  0.5548416    0.00000       Uiso       1.00
       C24          C  0.4081559  0.5506557  0.5509286    0.00000       Uiso       1.00
       C25          C  0.4999999  0.5000006  0.4999999    0.00000       Uiso       1.00
        H7          H  0.3641805  0.5245581  0.5686049    0.00000       Uiso       1.00
        H8          H  0.3639999  0.6249552  0.5740815    0.00000       Uiso       1.00
       C26          C  0.5909434  0.3602912  0.5960835    0.00000       Uiso       1.00
       C27          C  0.5684009  0.3941818  0.5858903    0.00000       Uiso       1.00
        H9          H  0.5600021  0.4080614  0.6037483    0.00000       Uiso       1.00
       H10          H  0.5993318  0.3489171  0.6215202    0.00000       Uiso       1.00
       C28          C  0.4323667  0.5299407  0.3910369    0.00000       Uiso       1.00
       C29          C  0.4435678  0.4971745  0.4068069    0.00000       Uiso       1.00
       C30          C  0.4657573  0.4874462  0.4412394    0.00000       Uiso       1.00
       C31          C  0.4434607  0.5527679  0.4098446    0.00000       Uiso       1.00
       C32          C  0.4656480  0.5427167  0.4442573    0.00000       Uiso       1.00
       C33          C  0.4780160  0.5095315  0.4606061    0.00000       Uiso       1.00
       H11          H  0.5276716  0.4533557  0.4631687    0.00000       Uiso       1.00
       H12          H  0.5275678  0.5141920  0.4664823    0.00000       Uiso       1.00
       C34          C  0.5683119  0.3913240  0.5305156    0.00000       Uiso       1.00
       C35          C  0.5572680  0.4070663  0.4977871    0.00000       Uiso       1.00
       C36          C  0.5348702  0.4413975  0.4878731    0.00000       Uiso       1.00
       C37          C  0.5568509  0.4100564  0.5531189    0.00000       Uiso       1.00
       C38          C  0.5344529  0.4443698  0.5428807    0.00000       Uiso       1.00
       C39          C  0.5222432  0.4606821  0.5097205    0.00000       Uiso       1.00
       H13          H  0.4730714  0.4627020  0.4532160    0.00000       Uiso       1.00
       H14          H  0.4726081  0.4659917  0.5137590    0.00000       Uiso       1.00
       C40          C  0.5680450  0.5407458  0.5386674    0.00000       Uiso       1.00
       C41          C  0.5566340  0.5361885  0.5600046    0.00000       Uiso       1.00
       C42          C  0.5343226  0.5241277  0.5472344    0.00000       Uiso       1.00
       C43          C  0.5570369  0.5332050  0.5046659    0.00000       Uiso       1.00
       C44          C  0.5347204  0.5211691  0.4922175    0.00000       Uiso       1.00
       C45          C  0.5221413  0.5172076  0.5128001    0.00000       Uiso       1.00
       H15          H  0.4724386  0.5644472  0.5191529    0.00000       Uiso       1.00
       H16          H  0.4728761  0.5611672  0.4585832    0.00000       Uiso       1.00
       C46          C  0.4312668  0.5379927  0.5397767    0.00000       Uiso       1.00
       C47          C  0.4425381  0.5595624  0.5354071    0.00000       Uiso       1.00
       C48          C  0.4650669  0.5470153  0.5236644    0.00000       Uiso       1.00
       C49          C  0.4426304  0.5039787  0.5323626    0.00000       Uiso       1.00
       C50          C  0.4651577  0.4917554  0.5206345    0.00000       Uiso       1.00
       C51          C  0.4775978  0.5125818  0.5168732    0.00000       Uiso       1.00
       H17          H  0.5268524  0.5194565  0.5644938    0.00000       Uiso       1.00
       H18          H  0.5269333  0.4586516  0.5611702    0.00000       Uiso       1.00
       C52          C  0.5689514  0.5373890  0.4837965    0.00000       Uiso       1.00
       C53          C  0.5914112  0.5488612  0.4964316    0.00000       Uiso       1.00
       C54          C  0.5681497  0.5433338  0.5940365    0.00000       Uiso       1.00
       C55          C  0.5906062  0.5548145  0.6067004    0.00000       Uiso       1.00
       C56          C  0.4319676  0.4748283  0.3878860    0.00000       Uiso       1.00
       C57          C  0.4096350  0.4848000  0.3538886    0.00000       Uiso       1.00
       C58          C  0.4317607  0.5855703  0.3939372    0.00000       Uiso       1.00
       C59          C  0.4094312  0.5955729  0.3599428    0.00000       Uiso       1.00
       C60          C  0.4308590  0.4828709  0.5363631    0.00000       Uiso       1.00
       C61          C  0.4081938  0.4952859  0.5475318    0.00000       Uiso       1.00
       C62          C  0.4306733  0.5936004  0.5424227    0.00000       Uiso       1.00
       C63          C  0.4080046  0.6060466  0.5535867    0.00000       Uiso       1.00
       C64          C  0.5692290  0.3882235  0.4756655    0.00000       Uiso       1.00
       C65          C  0.5917672  0.3543321  0.4858245    0.00000       Uiso       1.00
       H19          H  0.3996325  0.4783300  0.5502704    0.00000       Uiso       1.00
       H20          H  0.4391803  0.4566532  0.5307684    0.00000       Uiso       1.00
       H21          H  0.3993684  0.6324025  0.5586929    0.00000       Uiso       1.00
       H22          H  0.4389173  0.6107028  0.5392020    0.00000       Uiso       1.00
       H23          H  0.5609111  0.5316997  0.4575963    0.00000       Uiso       1.00
       H24          H  0.6000940  0.5517324  0.4796559    0.00000       Uiso       1.00
       H25          H  0.5597929  0.5399655  0.6109616    0.00000       Uiso       1.00
       H26          H  0.5989762  0.5600145  0.6330435    0.00000       Uiso       1.00
       H27          H  0.5611606  0.3997644  0.4504063    0.00000       Uiso       1.00
       H28          H  0.6004767  0.3406284  0.4681408    0.00000       Uiso       1.00
       H29          H  0.4009156  0.6210389  0.3485398    0.00000       Uiso       1.00
       H30          H  0.4398744  0.6036032  0.4078665    0.00000       Uiso       1.00
       H31          H  0.4401661  0.4495369  0.3994571    0.00000       Uiso       1.00
       H32          H  0.4011956  0.4669499  0.3401166    0.00000       Uiso       1.00
       C66          C  0.1347053  0.6735154  0.6721203    0.00000       Uiso       1.00
       C67          C  0.1233838  0.7073837  0.6790418    0.00000       Uiso       1.00
       C68          C  0.1007915  0.7204199  0.6907809    0.00000       Uiso       1.00
       C69          C  0.1232100  0.6524848  0.6764135    0.00000       Uiso       1.00
       C70          C  0.1006184  0.6649474  0.6881313    0.00000       Uiso       1.00
       C71          C  0.0893291  0.6991025  0.6953502    0.00000       Uiso       1.00
       H33          H  0.1321323  0.6248192  0.6708035    0.00000       Uiso       1.00
       H34          H  0.1324490  0.7249159  0.6755956    0.00000       Uiso       1.00
       C72          C  0.8631406  0.9615355  0.6908134    0.00000       Uiso       1.00
       C73          C  0.8742140  0.9432307  0.6680963    0.00000       Uiso       1.00
       C74          C  0.8971430  0.9090794  0.6777859    0.00000       Uiso       1.00
       C75          C  0.8752189  0.9459993  0.7236327    0.00000       Uiso       1.00
       C76          C  0.8981599  0.9118794  0.7339007    0.00000       Uiso       1.00
       C77          C  0.9092001  0.8933042  0.7108698    0.00000       Uiso       1.00
       H35          H  0.8665053  0.9605865  0.7425162    0.00000       Uiso       1.00
       H36          H  0.8646729  0.9555386  0.6412572    0.00000       Uiso       1.00
       C78          C  0.8622406  0.6770920  0.6771959    0.00000       Uiso       1.00
       C79          C  0.8743888  0.6836746  0.7110741    0.00000       Uiso       1.00
       C80          C  0.8974689  0.6946006  0.7234963    0.00000       Uiso       1.00
       C81          C  0.8733839  0.6809060  0.6555377    0.00000       Uiso       1.00
       C82          C  0.8964576  0.6917986  0.6673849    0.00000       Uiso       1.00
       C83          C  0.9085837  0.6986795  0.7015514    0.00000       Uiso       1.00
       H37          H  0.8637869  0.6755620  0.6278535    0.00000       Uiso       1.00
       H38          H  0.8656193  0.6806098  0.7291126    0.00000       Uiso       1.00
       C84          C  0.1399122  0.6878598  0.9598665    0.00000       Uiso       1.00
       C85          C  0.1280121  0.6657137  0.9417841    0.00000       Uiso       1.00
       C86          C  0.1045926  0.6759060  0.9079295    0.00000       Uiso       1.00
       C87          C  0.1281858  0.7206128  0.9444124    0.00000       Uiso       1.00
       C88          C  0.1047715  0.7313730  0.9105840    0.00000       Uiso       1.00
       C89          C  0.0928913  0.7089154  0.8922302    0.00000       Uiso       1.00
       C90          C -0.0000001  0.7500007  0.7499998    0.00000       Uiso       1.00
       H39          H  0.1375742  0.7390351  0.9588230    0.00000       Uiso       1.00
       H40          H  0.1372575  0.6389384  0.9540309    0.00000       Uiso       1.00
       C91          C  0.9101536  0.8957835  0.7666863    0.00000       Uiso       1.00
       C92          C  0.9325802  0.8618122  0.7764024    0.00000       Uiso       1.00
       H41          H  0.9411705  0.8501602  0.8017874    0.00000       Uiso       1.00
       H42          H  0.9020429  0.9094443  0.7848254    0.00000       Uiso       1.00
       C93          C  0.0668110  0.7118337  0.7074150    0.00000       Uiso       1.00
       C94          C  0.0558757  0.7458022  0.7150797    0.00000       Uiso       1.00
       C95          C  0.0339407  0.7580919  0.7277099    0.00000       Uiso       1.00
       C96          C  0.0557076  0.6903761  0.7124388    0.00000       Uiso       1.00
       C97          C  0.0337764  0.7029877  0.7250851    0.00000       Uiso       1.00
       C98          C  0.0216733  0.7373810  0.7321588    0.00000       Uiso       1.00
       H43          H  0.9719478  0.7916061  0.6887096    0.00000       Uiso       1.00
       H44          H  0.9717501  0.7309511  0.6857948    0.00000       Uiso       1.00
       C99          C  0.9320680  0.8588997  0.7208050    0.00000       Uiso       1.00
      C100          C  0.9427505  0.8402240  0.6976125    0.00000       Uiso       1.00
      C101          C  0.9650319  0.8058331  0.7074134    0.00000       Uiso       1.00
      C102          C  0.9437718  0.8430235  0.7536820    0.00000       Uiso       1.00
      C103          C  0.9660499  0.8086166  0.7631571    0.00000       Uiso       1.00
      C104          C  0.9778998  0.7893801  0.7406874    0.00000       Uiso       1.00
       H45          H  0.0268377  0.7838060  0.7347635    0.00000       Uiso       1.00
       H46          H  0.0279621  0.7868513  0.7961189    0.00000       Uiso       1.00
      C105          C  0.9315947  0.7099249  0.7136720    0.00000       Uiso       1.00
      C106          C  0.9433638  0.7172690  0.7476563    0.00000       Uiso       1.00
      C107          C  0.9657851  0.7290971  0.7593395    0.00000       Uiso       1.00
      C108          C  0.9423566  0.7144628  0.6915942    0.00000       Uiso       1.00
      C109          C  0.9647865  0.7262998  0.7036053    0.00000       Uiso       1.00
      C110          C  0.9777217  0.7330233  0.7379858    0.00000       Uiso       1.00
       H47          H  0.0276440  0.6886927  0.7914351    0.00000       Uiso       1.00
       H48          H  0.0265453  0.6856359  0.7300786    0.00000       Uiso       1.00
      C111          C  0.0695349  0.7193439  0.8581136    0.00000       Uiso       1.00
      C112          C  0.0580011  0.6967185  0.8396490    0.00000       Uiso       1.00
      C113          C  0.0352244  0.7069969  0.8055317    0.00000       Uiso       1.00
      C114          C  0.0581841  0.7521350  0.8422977    0.00000       Uiso       1.00
      C115          C  0.0354073  0.7620902  0.8081626    0.00000       Uiso       1.00
      C116          C  0.0227059  0.7402179  0.7891687    0.00000       Uiso       1.00
       H49          H  0.9735358  0.7359409  0.7850918    0.00000       Uiso       1.00
       H50          H  0.9737562  0.7965645  0.7880167    0.00000       Uiso       1.00
      C117          C  0.9300871  0.7075180  0.6575955    0.00000       Uiso       1.00
      C118          C  0.9075181  0.6962589  0.6456825    0.00000       Uiso       1.00
      C119          C  0.9320924  0.7131066  0.7692755    0.00000       Uiso       1.00
      C120          C  0.9095272  0.7018422  0.7573942    0.00000       Uiso       1.00
      C121          C  0.0674856  0.7667898  0.7104203    0.00000       Uiso       1.00
      C122          C  0.0895684  0.7543082  0.6983541    0.00000       Uiso       1.00
      C123          C  0.0671441  0.6563806  0.7051530    0.00000       Uiso       1.00
      C124          C  0.0892236  0.6438683  0.6930833    0.00000       Uiso       1.00
      C125          C  0.0702154  0.7742825  0.8608634    0.00000       Uiso       1.00
      C126          C  0.0931240  0.7640831  0.8945570    0.00000       Uiso       1.00
      C127          C  0.0698528  0.6638857  0.8555838    0.00000       Uiso       1.00
      C128          C  0.0927646  0.6536548  0.8892729    0.00000       Uiso       1.00
      C129          C  0.9305485  0.8562372  0.6647114    0.00000       Uiso       1.00
      C130          C  0.9081258  0.8902060  0.6549654    0.00000       Uiso       1.00
       H51          H  0.1018815  0.7817819  0.9080551    0.00000       Uiso       1.00
       H52          H  0.0619090  0.7995911  0.8492516    0.00000       Uiso       1.00
       H53          H  0.1013824  0.6281716  0.9007057    0.00000       Uiso       1.00
       H54          H  0.0614090  0.6460050  0.8419146    0.00000       Uiso       1.00
       H55          H  0.9379336  0.7108718  0.6401082    0.00000       Uiso       1.00
       H56          H  0.8985601  0.6912126  0.6193398    0.00000       Uiso       1.00
       H57          H  0.9407263  0.7186515  0.7954804    0.00000       Uiso       1.00
       H58          H  0.9013527  0.6989782  0.7747325    0.00000       Uiso       1.00
       H59          H  0.9383376  0.8424123  0.6464000    0.00000       Uiso       1.00
       H60          H  0.8992231  0.9016848  0.6294132    0.00000       Uiso       1.00
       H61          H  0.0975406  0.6175479  0.6877907    0.00000       Uiso       1.00
       H62          H  0.0590180  0.6393639  0.7088633    0.00000       Uiso       1.00
       H63          H  0.0594893  0.7929680  0.7161964    0.00000       Uiso       1.00
       H64          H  0.0980238  0.7711737  0.6951246    0.00000       Uiso       1.00
      C131          C  0.7900917  0.6435704  0.6755949    0.00000       Uiso       1.00
      C132          C  0.7696431  0.6349962  0.6512517    0.00000       Uiso       1.00
      C133          C  0.7161590  0.6066901  0.6423947    0.00000       Uiso       1.00
      C134          C  0.7326768  0.6165561  0.6346516    0.00000       Uiso       1.00
       H65          H  0.7939454  0.6428478  0.7019807    0.00000       Uiso       1.00
       H66          H  0.7186981  0.6053118  0.6681902    0.00000       Uiso       1.00
        O1          O  0.6777560  0.5879575  0.6211946    0.00000       Uiso       1.00
      C135          C  0.8060619  0.6532339  0.6669467    0.00000       Uiso       1.00
        O2          O  0.8274694  0.6626400  0.6884248    0.00000       Uiso       1.00
      C136          C  0.6960871  0.5983745  0.6175616    0.00000       Uiso       1.00
      C137          C  0.7531254  0.6251302  0.6589948    0.00000       Uiso       1.00
        O3          O  0.8204622  0.6649428  0.6312274    0.00000       Uiso       1.00
      C138          C  0.6921562  0.5996664  0.5854753    0.00000       Uiso       1.00
        O4          O  0.6707487  0.5902603  0.5639973    0.00000       Uiso       1.00
      C139          C  0.8021310  0.6545258  0.6348604    0.00000       Uiso       1.00
        B1          B  0.8359798  0.6697844  0.6652211    0.00000       Uiso       1.00
      C140          C  0.7450927  0.6277701  0.5934272    0.00000       Uiso       1.00
      C141          C  0.7081264  0.6093299  0.5768271    0.00000       Uiso       1.00
      C142          C  0.7285749  0.6179041  0.6011703    0.00000       Uiso       1.00
      C143          C  0.7820590  0.6462102  0.6100273    0.00000       Uiso       1.00
      C144          C  0.7655413  0.6363442  0.6177704    0.00000       Uiso       1.00
        B2          B  0.6622382  0.5831159  0.5872009    0.00000       Uiso       1.00
       H67          H  0.7042726  0.6100525  0.5504413    0.00000       Uiso       1.00
       H68          H  0.7795199  0.6475885  0.5842319    0.00000       Uiso       1.00
      C145          C  0.7913111  0.0667851  0.6193690    0.00000       Uiso       1.00
      C146          C  0.7706057  0.0958615  0.6228334    0.00000       Uiso       1.00
      C147          C  0.7172359  0.1774004  0.5774798    0.00000       Uiso       1.00
      C148          C  0.7335681  0.1511692  0.6018888    0.00000       Uiso       1.00
       H69          H  0.7955256  0.0634881  0.5970765    0.00000       Uiso       1.00
       H70          H  0.7201333  0.1760704  0.5544425    0.00000       Uiso       1.00
        O5          O  0.6787021  0.2344619  0.5596473    0.00000       Uiso       1.00
      C149          C  0.8070852  0.0413070  0.6441222    0.00000       Uiso       1.00
        O6          O  0.8287042  0.0104658  0.6444729    0.00000       Uiso       1.00
      C150          C  0.6968985  0.2058474  0.5818120    0.00000       Uiso       1.00
      C151          C  0.7542735  0.1220928  0.5984244    0.00000       Uiso       1.00
        O7          O  0.8209085  0.0155376  0.6941602    0.00000       Uiso       1.00
      C152          C  0.6925253  0.2086925  0.6096853    0.00000       Uiso       1.00
        O8          O  0.6709064  0.2395337  0.6093345    0.00000       Uiso       1.00
      C153          C  0.8027120  0.0441521  0.6719955    0.00000       Uiso       1.00
        B3          B  0.8368428  0.9950269  0.6761236    0.00000       Uiso       1.00
      C154          C  0.7453370  0.1279067  0.6553831    0.00000       Uiso       1.00
      C155          C  0.7082995  0.1832144  0.6344384    0.00000       Uiso       1.00
      C156          C  0.7290048  0.1541380  0.6309741    0.00000       Uiso       1.00
      C157          C  0.7823746  0.0725990  0.6763276    0.00000       Uiso       1.00
      C158          C  0.7660424  0.0988303  0.6519186    0.00000       Uiso       1.00
        B4          B  0.6627670  0.2549728  0.5776839    0.00000       Uiso       1.00
       H71          H  0.7040849  0.1865114  0.6567308    0.00000       Uiso       1.00
       H72          H  0.7794772  0.0739291  0.6993650    0.00000       Uiso       1.00
      C159          C  0.2071524  0.6727987  0.6396089    0.00000       Uiso       1.00
      C160          C  0.2278865  0.6485970  0.6312968    0.00000       Uiso       1.00
      C161          C  0.2816888  0.6403642  0.6037490    0.00000       Uiso       1.00
      C162          C  0.2651547  0.6323798  0.6133668    0.00000       Uiso       1.00
       H73          H  0.2030745  0.6992589  0.6388661    0.00000       Uiso       1.00
       H74          H  0.2789363  0.6662475  0.6023686    0.00000       Uiso       1.00
        O9          O  0.3204366  0.6195433  0.5855411    0.00000       Uiso       1.00
      C163          C  0.1911754  0.6639119  0.6490309    0.00000       Uiso       1.00
       O10          O  0.1695003  0.6852232  0.6581574    0.00000       Uiso       1.00
      C164          C  0.3020484  0.6156655  0.5956894    0.00000       Uiso       1.00
      C165          C  0.2444206  0.6565815  0.6216789    0.00000       Uiso       1.00
       O11          O  0.1769873  0.6278480  0.6604848    0.00000       Uiso       1.00
      C166          C  0.3062485  0.5834794  0.5969949    0.00000       Uiso       1.00
       O12          O  0.3279236  0.5621681  0.5878685    0.00000       Uiso       1.00
      C167          C  0.1953755  0.6317258  0.6503365    0.00000       Uiso       1.00
        B5          B  0.1611316  0.6618062  0.6651483    0.00000       Uiso       1.00
      C168          C  0.2530033  0.5908099  0.6243469    0.00000       Uiso       1.00
      C169          C  0.2902715  0.5745926  0.6064170    0.00000       Uiso       1.00
      C170          C  0.2695374  0.5987943  0.6147292    0.00000       Uiso       1.00
      C171          C  0.2157351  0.6070271  0.6422769    0.00000       Uiso       1.00
      C172          C  0.2322692  0.6150116  0.6326591    0.00000       Uiso       1.00
        B6          B  0.3362922  0.5855851  0.5808775    0.00000       Uiso       1.00
       H75          H  0.2943494  0.5481325  0.6071597    0.00000       Uiso       1.00
       H76          H  0.2184876  0.5811437  0.6436573    0.00000       Uiso       1.00
      C173          C  0.2114451  0.6168481  0.0654245    0.00000       Uiso       1.00
      C174          C  0.2318649  0.6205475  0.0946155    0.00000       Uiso       1.00
      C175          C  0.2849164  0.5755475  0.1763738    0.00000       Uiso       1.00
      C176          C  0.2686005  0.5998972  0.1500901    0.00000       Uiso       1.00
       H77          H  0.2074547  0.5944074  0.0620740    0.00000       Uiso       1.00
       H78          H  0.2822324  0.5523725  0.1749961    0.00000       Uiso       1.00
       O13          O  0.3231057  0.5580395  0.2336144    0.00000       Uiso       1.00
      C177          C  0.1956777  0.6415494  0.0398975    0.00000       Uiso       1.00
       O14          O  0.1743263  0.6416732  0.0089423    0.00000       Uiso       1.00
      C178          C  0.3049662  0.5801148  0.2049345    0.00000       Uiso       1.00
      C179          C  0.2481807  0.5961978  0.1208992    0.00000       Uiso       1.00
       O15          O  0.1816422  0.6916738  0.0141250    0.00000       Uiso       1.00
      C180          C  0.3090703  0.6081639  0.2078419    0.00000       Uiso       1.00
       O16          O  0.3304216  0.6080401  0.2387971    0.00000       Uiso       1.00
      C181          C  0.1997817  0.6695985  0.0428049    0.00000       Uiso       1.00
        B7          B  0.1660444  0.6733852  0.9935033    0.00000       Uiso       1.00
      C182          C  0.2565672  0.6535156  0.1268403    0.00000       Uiso       1.00
      C183          C  0.2933029  0.6328653  0.1823149    0.00000       Uiso       1.00
      C184          C  0.2728830  0.6291658  0.1531239    0.00000       Uiso       1.00
      C185          C  0.2198316  0.6741658  0.0713657    0.00000       Uiso       1.00
      C186          C  0.2361474  0.6498162  0.0976493    0.00000       Uiso       1.00
        B8          B  0.3387027  0.5763285  0.2542350    0.00000       Uiso       1.00
       H79          H  0.2972932  0.6553059  0.1856654    0.00000       Uiso       1.00
       H80          H  0.2225155  0.6973409  0.0727433    0.00000       Uiso       1.00
        S1          S  0.7584619  0.6233765  0.7025542    0.00000       Uiso       1.00
       O17          O  0.7388432  0.6555139  0.7081863    0.00000       Uiso       1.00
       O18          O  0.7889940  0.6158932  0.7252942    0.00000       Uiso       1.00
       O19          O  0.7512819  0.5952830  0.7090521    0.00000       Uiso       1.00
       H81          H  0.7541190  0.5943273  0.7321559    0.00000       Uiso       1.00
        S2          S  0.7397562  0.6295238  0.5498678    0.00000       Uiso       1.00
       O20          O  0.7593485  0.5973732  0.5442238    0.00000       Uiso       1.00
       O21          O  0.7464610  0.6555822  0.5438493    0.00000       Uiso       1.00
       O22          O  0.7068660  0.6376289  0.5253760    0.00000       Uiso       1.00
       H82          H  0.7040142  0.6385772  0.5022656    0.00000       Uiso       1.00
        S3          S  0.7602104  0.1182303  0.5605844    0.00000       Uiso       1.00
       O23          O  0.7408822  0.1054956  0.5351932    0.00000       Uiso       1.00
       O24          O  0.7908701  0.0952287  0.5688891    0.00000       Uiso       1.00
       O25          O  0.7530906  0.1534477  0.5468317    0.00000       Uiso       1.00
       H83          H  0.7562460  0.1514180  0.5267680    0.00000       Uiso       1.00
        S4          S  0.7394001  0.1317692  0.6932231    0.00000       Uiso       1.00
       O26          O  0.7587019  0.1445434  0.7185993    0.00000       Uiso       1.00
       O27          O  0.7460490  0.0990583  0.7060162    0.00000       Uiso       1.00
       O28          O  0.7063726  0.1565033  0.6842725    0.00000       Uiso       1.00
       H84          H  0.7032024  0.1585551  0.7043278    0.00000       Uiso       1.00
        S5          S  0.2387188  0.7002763  0.6199065    0.00000       Uiso       1.00
       O29          O  0.2580064  0.7061375  0.6521333    0.00000       Uiso       1.00
       O30          O  0.2080559  0.7227625  0.6121143    0.00000       Uiso       1.00
       O31          O  0.2460856  0.7069158  0.5920334    0.00000       Uiso       1.00
       H85          H  0.2430550  0.7300915  0.5910679    0.00000       Uiso       1.00
        S6          S  0.2587051  0.5471150  0.6261193    0.00000       Uiso       1.00
       O32          O  0.2394441  0.5412422  0.5938798    0.00000       Uiso       1.00
       O33          O  0.2518270  0.5409647  0.6519728    0.00000       Uiso       1.00
       O34          O  0.2917357  0.5228966  0.6345570    0.00000       Uiso       1.00
       H86          H  0.2947813  0.4997145  0.6355154    0.00000       Uiso       1.00
        S7          S  0.2426092  0.5581191  0.1169522    0.00000       Uiso       1.00
       O35          O  0.2622684  0.5328552  0.1044845    0.00000       Uiso       1.00
       O36          O  0.2120801  0.5661178  0.0936997    0.00000       Uiso       1.00
       O37          O  0.2495421  0.5443557  0.1520801    0.00000       Uiso       1.00
       H87          H  0.2465803  0.5241654  0.1500054    0.00000       Uiso       1.00
        S8          S  0.2621387  0.6915942  0.1307872    0.00000       Uiso       1.00
       O38          O  0.2425058  0.7168434  0.1432945    0.00000       Uiso       1.00
       O39          O  0.2556634  0.7043970  0.0981591    0.00000       Uiso       1.00
       O40          O  0.2950259  0.6829734  0.1557918    0.00000       Uiso       1.00
       H88          H  0.2980025  0.7031555  0.1578887    0.00000       Uiso       1.00
