data_108
_audit_creation_date              0000-00-00
_audit_creation_method            'LanYouShi'
_symmetry_space_group_name_H-M    'P1'
_cell_length_a                    45.5144997
_cell_length_b                    37.5410995
_cell_length_c                    37.5281982
_cell_angle_alpha                 97.0925980
_cell_angle_beta                  111.1653976
_cell_angle_gamma                 111.1726990
loop_
_atom_site_label
_atom_site_type_symbol
_atom_site_fract_x
_atom_site_fract_y
_atom_site_fract_z
_atom_site_U_iso_or_equiv
_atom_site_adp_type
_atom_site_occupancy
        C1          C  0.6188779  0.4356288  0.5522291    0.00000       Uiso       1.00
        C2          C  0.6055284  0.4400114  0.5140207    0.00000       Uiso       1.00
        C3          C  0.5809868  0.4519011  0.4994109    0.00000       Uiso       1.00
        C4          C  0.6051154  0.4436582  0.5783800    0.00000       Uiso       1.00
        C5          C  0.5776306  0.4572068  0.5627792    0.00000       Uiso       1.00
        C6          C  0.5671580  0.4610510  0.5232023    0.00000       Uiso       1.00
        H1          H  0.4267620  0.4049945  0.5376298    0.00000       Uiso       1.00
        H2          H  0.6156348  0.4401419  0.6096191    0.00000       Uiso       1.00
        H3          H  0.6163877  0.4334929  0.4922734    0.00000       Uiso       1.00
        C7          C  0.3821227  0.4334677  0.3162912    0.00000       Uiso       1.00
        C8          C  0.3956267  0.4087366  0.3340620    0.00000       Uiso       1.00
        C9          C  0.4228932  0.4275145  0.3756489    0.00000       Uiso       1.00
       C10          C  0.3955227  0.4732476  0.3381589    0.00000       Uiso       1.00
       C11          C  0.4198472  0.4906671  0.3751819    0.00000       Uiso       1.00
       C12          C  0.4334127  0.4684506  0.3944436    0.00000       Uiso       1.00
        H4          H  0.5733081  0.4542206  0.4691006    0.00000       Uiso       1.00
        H5          H  0.3848736  0.4938632  0.3240940    0.00000       Uiso       1.00
        H6          H  0.3850632  0.3762408  0.3166241    0.00000       Uiso       1.00
       C13          C  0.3805366  0.4474765  0.5635219    0.00000       Uiso       1.00
       C14          C  0.3941030  0.4857872  0.5594593    0.00000       Uiso       1.00
       C15          C  0.4217348  0.4945472  0.5456720    0.00000       Uiso       1.00
       C16          C  0.3942069  0.4212761  0.5553623    0.00000       Uiso       1.00
       C17          C  0.4188537  0.4284222  0.5431358    0.00000       Uiso       1.00
       C18          C  0.4325087  0.4642927  0.5376596    0.00000       Uiso       1.00
        H7          H  0.5722889  0.6187862  0.6046334    0.00000       Uiso       1.00
        H8          H  0.3835107  0.3899529  0.5586181    0.00000       Uiso       1.00
        H9          H  0.3833211  0.5075753  0.5660880    0.00000       Uiso       1.00
       C19          C  0.6184785  0.6834422  0.5679672    0.00000       Uiso       1.00
       C20          C  0.6047578  0.6654801  0.5924674    0.00000       Uiso       1.00
       C21          C  0.5802746  0.6289734  0.5822525    0.00000       Uiso       1.00
       C22          C  0.6051708  0.6618333  0.5281081    0.00000       Uiso       1.00
       C23          C  0.5777378  0.6207278  0.5158994    0.00000       Uiso       1.00
       C24          C  0.5668744  0.6061599  0.5446705    0.00000       Uiso       1.00
       H10          H  0.4275738  0.5219361  0.3886049    0.00000       Uiso       1.00
       C25          C  0.5000037  0.5000027  0.5000014    0.00000       Uiso       1.00
       H11          H  0.6159967  0.6760572  0.5076781    0.00000       Uiso       1.00
       H12          H  0.6152439  0.6827063  0.6250238    0.00000       Uiso       1.00
       C26          C  0.5429584  0.4744543  0.5058725    0.00000       Uiso       1.00
       C27          C  0.5601535  0.4678811  0.5835526    0.00000       Uiso       1.00
       C28          C  0.5340959  0.4811757  0.5646982    0.00000       Uiso       1.00
       C29          C  0.5248623  0.4834368  0.5245450    0.00000       Uiso       1.00
       H13          H  0.4780354  0.4153029  0.4591623    0.00000       Uiso       1.00
       H14          H  0.4620699  0.4428409  0.5163447    0.00000       Uiso       1.00
       H15          H  0.5667315  0.4664951  0.6139316    0.00000       Uiso       1.00
       C30          C  0.4401262  0.4087346  0.4002483    0.00000       Uiso       1.00
       C31          C  0.4660177  0.4307016  0.4406308    0.00000       Uiso       1.00
       C32          C  0.4574209  0.4887809  0.4329973    0.00000       Uiso       1.00
       C33          C  0.4753052  0.4719603  0.4567446    0.00000       Uiso       1.00
       H16          H  0.5380235  0.4784599  0.4763835    0.00000       Uiso       1.00
       H17          H  0.5227340  0.5321062  0.4409288    0.00000       Uiso       1.00
       H18          H  0.4335149  0.3775832  0.3887459    0.00000       Uiso       1.00
       C34          C  0.4391043  0.5306831  0.5385940    0.00000       Uiso       1.00
       C35          C  0.4653623  0.5348774  0.5246216    0.00000       Uiso       1.00
       C36          C  0.4568706  0.4682265  0.5236002    0.00000       Uiso       1.00
       C37          C  0.4748814  0.5030529  0.5180301    0.00000       Uiso       1.00
       H19          H  0.5374116  0.5593672  0.5618247    0.00000       Uiso       1.00
       H20          H  0.5219679  0.4903834  0.5817099    0.00000       Uiso       1.00
       H21          H  0.4323290  0.5551212  0.5433136    0.00000       Uiso       1.00
       C38          C  0.5426772  0.5684712  0.5374911    0.00000       Uiso       1.00
       C39          C  0.5606574  0.5927424  0.4776281    0.00000       Uiso       1.00
       C40          C  0.5345840  0.5533021  0.4700815    0.00000       Uiso       1.00
       C41          C  0.5249491  0.5415474  0.5006791    0.00000       Uiso       1.00
       H22          H  0.4774853  0.5623859  0.5183178    0.00000       Uiso       1.00
       H23          H  0.4624353  0.5192916  0.4454160    0.00000       Uiso       1.00
       H24          H  0.5675411  0.6009166  0.4540684    0.00000       Uiso       1.00
       C42          C  0.8817603  0.3154386  0.7001330    0.00000       Uiso       1.00
       C43          C  0.8946339  0.3065814  0.6732821    0.00000       Uiso       1.00
       C44          C  0.9190036  0.2939688  0.6798677    0.00000       Uiso       1.00
       C45          C  0.8958662  0.3116462  0.7384881    0.00000       Uiso       1.00
       C46          C  0.9231670  0.2973886  0.7466068    0.00000       Uiso       1.00
       C47          C  0.9331387  0.2887279  0.7157543    0.00000       Uiso       1.00
       H25          H  0.0745416  0.3552471  0.8680257    0.00000       Uiso       1.00
       H26          H  0.8857370  0.3188424  0.7608012    0.00000       Uiso       1.00
       H27          H  0.8834902  0.3096079  0.6419118    0.00000       Uiso       1.00
       C48          C  0.1162903  0.2989776  0.6816501    0.00000       Uiso       1.00
       C49          C  0.1031125  0.3256181  0.6901248    0.00000       Uiso       1.00
       C50          C  0.0761834  0.3107438  0.7046006    0.00000       Uiso       1.00
       C51          C  0.1028991  0.2609875  0.6864702    0.00000       Uiso       1.00
       C52          C  0.0788708  0.2470330  0.6992244    0.00000       Uiso       1.00
       C53          C  0.0656361  0.2713310  0.7088455    0.00000       Uiso       1.00
       H28          H  0.9263011  0.2879479  0.6559973    0.00000       Uiso       1.00
       H29          H  0.1132839  0.2388475  0.6795989    0.00000       Uiso       1.00
       H30          H  0.1136730  0.3566880  0.6862624    0.00000       Uiso       1.00
       C54          C  0.1210238  0.3184333  0.9321330    0.00000       Uiso       1.00
       C55          C  0.1071360  0.2784026  0.9106815    0.00000       Uiso       1.00
       C56          C  0.0791764  0.2661229  0.8698887    0.00000       Uiso       1.00
       C57          C  0.1073495  0.3430333  0.9143362    0.00000       Uiso       1.00
       C58          C  0.0824150  0.3327645  0.8781043    0.00000       Uiso       1.00
       C59          C  0.0684338  0.2950030  0.8554357    0.00000       Uiso       1.00
       H31          H  0.9281436  0.1400799  0.7742247    0.00000       Uiso       1.00
       H32          H  0.1183062  0.3757316  0.9314398    0.00000       Uiso       1.00
       H33          H  0.1179171  0.2578911  0.9247762    0.00000       Uiso       1.00
       C60          C  0.8809406  0.0671657  0.6860939    0.00000       Uiso       1.00
       C61          C  0.8951325  0.0894131  0.7259215    0.00000       Uiso       1.00
       C62          C  0.9197794  0.1263003  0.7428412    0.00000       Uiso       1.00
       C63          C  0.8939003  0.0843483  0.6607156    0.00000       Uiso       1.00
       C64          C  0.9215078  0.1257788  0.6789243    0.00000       Uiso       1.00
       C65          C  0.9328684  0.1450141  0.7200057    0.00000       Uiso       1.00
       H34          H  0.0711119  0.2168184  0.7018079    0.00000       Uiso       1.00
       C66          C  0.0000036  0.2500049  0.7500020    0.00000       Uiso       1.00
       H35          H  0.8826879  0.0665938  0.6281701    0.00000       Uiso       1.00
       H36          H  0.8849346  0.0758283  0.7470595    0.00000       Uiso       1.00
       C67          C  0.9571210  0.2741975  0.7190775    0.00000       Uiso       1.00
       C68          C  0.9409153  0.2904037  0.7826442    0.00000       Uiso       1.00
       C69          C  0.9667429  0.2758811  0.7861651    0.00000       Uiso       1.00
       C70          C  0.9754730  0.2686722  0.7537682    0.00000       Uiso       1.00
       H37          H  0.0220047  0.3312997  0.7394287    0.00000       Uiso       1.00
       H38          H  0.0386136  0.3121246  0.8089146    0.00000       Uiso       1.00
       H39          H  0.9347181  0.2955527  0.8074951    0.00000       Uiso       1.00
       C71          C  0.0593180  0.3320860  0.7157976    0.00000       Uiso       1.00
       C72          C  0.0337348  0.3139032  0.7299420    0.00000       Uiso       1.00
       C73          C  0.0419284  0.2546603  0.7230901    0.00000       Uiso       1.00
       C74          C  0.0243871  0.2738702  0.7325761    0.00000       Uiso       1.00
       H40          H  0.9616660  0.2664292  0.6932777    0.00000       Uiso       1.00
       H41          H  0.9762390  0.2082711  0.6649886    0.00000       Uiso       1.00
       H42          H  0.0659820  0.3623793  0.7141086    0.00000       Uiso       1.00
       C75          C  0.0614452  0.2276667  0.8421034    0.00000       Uiso       1.00
       C76          C  0.0348879  0.2200533  0.8029619    0.00000       Uiso       1.00
       C77          C  0.0437798  0.2877479  0.8180041    0.00000       Uiso       1.00
       C78          C  0.0254323  0.2507832  0.7913113    0.00000       Uiso       1.00
       H43          H  0.9629283  0.1962877  0.7705798    0.00000       Uiso       1.00
       H44          H  0.9790828  0.2695667  0.8135850    0.00000       Uiso       1.00
       H45          H  0.0681654  0.2039924  0.8502053    0.00000       Uiso       1.00
       C79          C  0.9572746  0.1834913  0.7398821    0.00000       Uiso       1.00
       C80          C  0.9383108  0.1498332  0.6594516    0.00000       Uiso       1.00
       C81          C  0.9646051  0.1901364  0.6809179    0.00000       Uiso       1.00
       C82          C  0.9747405  0.2067073  0.7223626    0.00000       Uiso       1.00
       H46          H  0.0224816  0.1907161  0.7819059    0.00000       Uiso       1.00
       H47          H  0.0368826  0.2252287  0.7272741    0.00000       Uiso       1.00
       H48          H  0.9310486  0.1379901  0.6281457    0.00000       Uiso       1.00
       C83          C  0.7968752  0.9439055  0.6838667    0.00000       Uiso       1.00
       C84          C  0.7730231  0.9097789  0.6552086    0.00000       Uiso       1.00
       C85          C  0.7106962  0.8142617  0.6445202    0.00000       Uiso       1.00
       C86          C  0.7299336  0.8449569  0.6355354    0.00000       Uiso       1.00
       H49          H  0.8013940  0.9478484  0.7148255    0.00000       Uiso       1.00
        O1          O  0.6659276  0.7473716  0.6194453    0.00000       Uiso       1.00
       C87          C  0.8154737  0.9737159  0.6738177    0.00000       Uiso       1.00
        O2          O  0.8404398  0.0099002  0.6991219    0.00000       Uiso       1.00
       C88          C  0.6872824  0.7808707  0.6152898    0.00000       Uiso       1.00
       C89          C  0.7537857  0.8790836  0.6641935    0.00000       Uiso       1.00
       H50          H  0.7575516  0.8818837  0.6949114    0.00000       Uiso       1.00
        O3          O  0.8322133  0.0037833  0.6320194    0.00000       Uiso       1.00
       C90          C  0.6826675  0.7774392  0.5776469    0.00000       Uiso       1.00
        O4          O  0.6577011  0.7412547  0.5523427    0.00000       Uiso       1.00
       C91          C  0.8108588  0.9702845  0.6361749    0.00000       Uiso       1.00
        B1          B  0.8503307  0.0279089  0.6719644    0.00000       Uiso       1.00
       C92          C  0.7443554  0.8720716  0.5872712    0.00000       Uiso       1.00
       H51          H  0.7405896  0.8692715  0.5565531    0.00000       Uiso       1.00
       C93          C  0.7012659  0.8072497  0.5675979    0.00000       Uiso       1.00
       C94          C  0.7251181  0.8413763  0.5962560    0.00000       Uiso       1.00
       C95          C  0.7874449  0.9368935  0.6069444    0.00000       Uiso       1.00
       C96          C  0.7682076  0.9061983  0.6159292    0.00000       Uiso       1.00
        B2          B  0.6478102  0.7232460  0.5795001    0.00000       Uiso       1.00
       H52          H  0.6967472  0.8033068  0.5366392    0.00000       Uiso       1.00
       C97          C  0.7980096  0.3545159  0.6173793    0.00000       Uiso       1.00
       C98          C  0.7738944  0.3645802  0.6217471    0.00000       Uiso       1.00
       C99          C  0.7116768  0.3976210  0.5693671    0.00000       Uiso       1.00
      C100          C  0.7307280  0.3861327  0.5977409    0.00000       Uiso       1.00
       H53          H  0.8028950  0.3552904  0.5911827    0.00000       Uiso       1.00
        O5          O  0.6667708  0.4195266  0.5490315    0.00000       Uiso       1.00
      C101          C  0.8164111  0.3432660  0.6461648    0.00000       Uiso       1.00
        O6          O  0.8415946  0.3322387  0.6462561    0.00000       Uiso       1.00
      C102          C  0.6879911  0.4073850  0.5747467    0.00000       Uiso       1.00
      C103          C  0.7548432  0.3760684  0.5933732    0.00000       Uiso       1.00
       H54          H  0.7589757  0.3772303  0.5666549    0.00000       Uiso       1.00
        O7          O  0.8325675  0.3297005  0.7046216    0.00000       Uiso       1.00
      C104          C  0.6829271  0.4059610  0.6074882    0.00000       Uiso       1.00
        O8          O  0.6577436  0.4169884  0.6073969    0.00000       Uiso       1.00
      C105          C  0.8113471  0.3418422  0.6789064    0.00000       Uiso       1.00
        B3          B  0.8511102  0.3239650  0.6832408    0.00000       Uiso       1.00
      C106          C  0.7444950  0.3731587  0.6602799    0.00000       Uiso       1.00
       H55          H  0.7403626  0.3719968  0.6869982    0.00000       Uiso       1.00
      C107          C  0.7013286  0.3947113  0.6362737    0.00000       Uiso       1.00
      C108          C  0.7254438  0.3846469  0.6319060    0.00000       Uiso       1.00
      C109          C  0.7876614  0.3516061  0.6842859    0.00000       Uiso       1.00
      C110          C  0.7686102  0.3630944  0.6559122    0.00000       Uiso       1.00
        B4          B  0.6482281  0.4252621  0.5704122    0.00000       Uiso       1.00
       H56          H  0.6964433  0.3939367  0.6624703    0.00000       Uiso       1.00
      C111          C  0.2006609  0.3820243  0.6434875    0.00000       Uiso       1.00
      C112          C  0.2248050  0.3776551  0.6334810    0.00000       Uiso       1.00
      C113          C  0.2874574  0.4302565  0.6010657    0.00000       Uiso       1.00
      C114          C  0.2682033  0.4017711  0.6122701    0.00000       Uiso       1.00
       H57          H  0.1959129  0.4083109  0.6428905    0.00000       Uiso       1.00
        O9          O  0.3325784  0.4506900  0.5794808    0.00000       Uiso       1.00
      C115          C  0.1820556  0.3531263  0.6544529    0.00000       Uiso       1.00
       O10          O  0.1568156  0.3530200  0.6653849    0.00000       Uiso       1.00
      C116          C  0.3111653  0.4248715  0.5913504    0.00000       Uiso       1.00
      C117          C  0.2440591  0.4061404  0.6222766    0.00000       Uiso       1.00
       H58          H  0.2400687  0.4329509  0.6212990    0.00000       Uiso       1.00
       O11          O  0.1655326  0.2944531  0.6675204    0.00000       Uiso       1.00
      C118          C  0.3160554  0.3920169  0.5925484    0.00000       Uiso       1.00
       O12          O  0.3412954  0.3921231  0.5816163    0.00000       Uiso       1.00
      C119          C  0.1869456  0.3202716  0.6556507    0.00000       Uiso       1.00
        B5          B  0.1470696  0.3158989  0.6733462    0.00000       Uiso       1.00
      C120          C  0.2540518  0.3390027  0.6247246    0.00000       Uiso       1.00
       H59          H  0.2580423  0.3121922  0.6257021    0.00000       Uiso       1.00
      C121          C  0.2974500  0.3631188  0.6035137    0.00000       Uiso       1.00
      C122          C  0.2733059  0.3674881  0.6135201    0.00000       Uiso       1.00
      C123          C  0.2106536  0.3148867  0.6459355    0.00000       Uiso       1.00
      C124          C  0.2299077  0.3433720  0.6347311    0.00000       Uiso       1.00
        B6          B  0.3510413  0.4292443  0.5736550    0.00000       Uiso       1.00
       H60          H  0.3021980  0.3368323  0.6041107    0.00000       Uiso       1.00
      C125          C  0.2044700  0.3195696  0.0552759    0.00000       Uiso       1.00
      C126          C  0.2282933  0.3480012  0.0895727    0.00000       Uiso       1.00
      C127          C  0.2901854  0.3578762  0.1850563    0.00000       Uiso       1.00
      C128          C  0.2711509  0.3671545  0.1544629    0.00000       Uiso       1.00
       H61          H  0.1998139  0.2885655  0.0511106    0.00000       Uiso       1.00
       O13          O  0.3347391  0.3824270  0.2520518    0.00000       Uiso       1.00
      C129          C  0.1860754  0.3299071  0.0255741    0.00000       Uiso       1.00
       O14          O  0.1611649  0.3048563  0.9892470    0.00000       Uiso       1.00
      C130          C  0.3135770  0.3868882  0.2186225    0.00000       Uiso       1.00
      C131          C  0.2473277  0.3387229  0.1201661    0.00000       Uiso       1.00
       H62          H  0.2434198  0.3079503  0.1171440    0.00000       Uiso       1.00
       O15          O  0.1697016  0.3720783  0.9958487    0.00000       Uiso       1.00
      C132          C  0.3183659  0.4245981  0.2223259    0.00000       Uiso       1.00
       O16          O  0.3432758  0.4496490  0.2586535    0.00000       Uiso       1.00
      C133          C  0.1908643  0.3676170  0.0292774    0.00000       Uiso       1.00
        B7          B  0.1515045  0.3322425  0.9714586    0.00000       Uiso       1.00
      C134          C  0.2571136  0.4157823  0.1277338    0.00000       Uiso       1.00
       H63          H  0.2610215  0.4465549  0.1307559    0.00000       Uiso       1.00
      C135          C  0.2999713  0.4349356  0.1926241    0.00000       Uiso       1.00
      C136          C  0.2761480  0.4065039  0.1583273    0.00000       Uiso       1.00
      C137          C  0.2142559  0.3966289  0.0628436    0.00000       Uiso       1.00
      C138          C  0.2332903  0.3873506  0.0934370    0.00000       Uiso       1.00
        B8          B  0.3529362  0.4222628  0.2764420    0.00000       Uiso       1.00
       H64          H  0.3046274  0.4659396  0.1967893    0.00000       Uiso       1.00
        F1          F  0.7144281  0.8163081  0.6823342    0.00000       Uiso       1.00
        F2          F  0.7837130  0.9348471  0.5691304    0.00000       Uiso       1.00
        F3          F  0.7158635  0.3995468  0.5355630    0.00000       Uiso       1.00
        F4          F  0.7834747  0.3496803  0.7180900    0.00000       Uiso       1.00
        F5          F  0.2834527  0.4641778  0.5993770    0.00000       Uiso       1.00
        F6          F  0.2146583  0.2809653  0.6476241    0.00000       Uiso       1.00
        F7          F  0.2862715  0.3199825  0.1827351    0.00000       Uiso       1.00
        F8          F  0.2181698  0.4345226  0.0651649    0.00000       Uiso       1.00
