data_112
_audit_creation_date              0000-00-00
_audit_creation_method            'LanYouShi'
_symmetry_space_group_name_H-M    'P1'
_cell_length_a                    54.5938988
_cell_length_b                    43.0629997
_cell_length_c                    43.0385017
_cell_angle_alpha                 101.7387009
_cell_angle_beta                  61.6030998
_cell_angle_gamma                 118.4425964
loop_
_atom_site_label
_atom_site_type_symbol
_atom_site_fract_x
_atom_site_fract_y
_atom_site_fract_z
_atom_site_U_iso_or_equiv
_atom_site_adp_type
_atom_site_occupancy
        C1          C  0.3484805  0.6115423  0.5930234    0.00000       Uiso       1.00
        C2          C  0.3606775  0.6031246  0.5574462    0.00000       Uiso       1.00
        C3          C  0.3836790  0.5914720  0.5438355    0.00000       Uiso       1.00
        C4          C  0.3596803  0.6082479  0.6147949    0.00000       Uiso       1.00
        C5          C  0.3826810  0.5965997  0.6012319    0.00000       Uiso       1.00
        C6          C  0.3961766  0.5891194  0.5650343    0.00000       Uiso       1.00
        H1          H  0.6167521  0.5932618  0.3081263    0.00000       Uiso       1.00
        H2          H  0.6121664  0.6187785  0.5917004    0.00000       Uiso       1.00
        H3          H  0.3500481  0.6150851  0.6438556    0.00000       Uiso       1.00
        H4          H  0.3518662  0.6057436  0.5392924    0.00000       Uiso       1.00
        C7          C  0.6591403  0.5582854  0.2386657    0.00000       Uiso       1.00
        C8          C  0.6476457  0.5823510  0.2587367    0.00000       Uiso       1.00
        C9          C  0.6237078  0.5731397  0.2930223    0.00000       Uiso       1.00
       C10          C  0.6462906  0.5248145  0.2533263    0.00000       Uiso       1.00
       C11          C  0.6223516  0.5155551  0.2876073    0.00000       Uiso       1.00
       C12          C  0.6095724  0.5389979  0.3079871    0.00000       Uiso       1.00
        H5          H  0.3911808  0.5835205  0.5166712    0.00000       Uiso       1.00
        H6          H  0.3841287  0.2986813  0.4900699    0.00000       Uiso       1.00
        H7          H  0.6553327  0.5048281  0.2372957    0.00000       Uiso       1.00
        H8          H  0.6578033  0.6097339  0.2471605    0.00000       Uiso       1.00
       C13          C  0.6530312  0.5916293  0.6098543    0.00000       Uiso       1.00
       C14          C  0.6405832  0.5560943  0.6014092    0.00000       Uiso       1.00
       C15          C  0.6174390  0.5427517  0.5899854    0.00000       Uiso       1.00
       C16          C  0.6419383  0.6136308  0.6068196    0.00000       Uiso       1.00
       C17          C  0.6187951  0.6003363  0.5954003    0.00000       Uiso       1.00
       C18          C  0.6050503  0.5641876  0.5878999    0.00000       Uiso       1.00
        H9          H  0.3823407  0.3078682  0.5929035    0.00000       Uiso       1.00
       H10          H  0.3893928  0.5927074  0.6195047    0.00000       Uiso       1.00
       H11          H  0.6517754  0.6426610  0.6136829    0.00000       Uiso       1.00
       H12          H  0.6493048  0.5377552  0.6038182    0.00000       Uiso       1.00
       C19          C  0.3393582  0.2388014  0.5581564    0.00000       Uiso       1.00
       C20          C  0.3511040  0.2586885  0.5821076    0.00000       Uiso       1.00
       C21          C  0.3751846  0.2928950  0.5728566    0.00000       Uiso       1.00
       C22          C  0.3521011  0.2535651  0.5247591    0.00000       Uiso       1.00
       C23          C  0.3761826  0.2877673  0.5154603    0.00000       Uiso       1.00
       C24          C  0.3892110  0.3079535  0.5387785    0.00000       Uiso       1.00
       H13          H  0.6097367  0.5156079  0.5819988    0.00000       Uiso       1.00
       H14          H  0.6143224  0.4900912  0.2984247    0.00000       Uiso       1.00
       H15          H  0.3428541  0.2376842  0.5048655    0.00000       Uiso       1.00
       H16          H  0.3410361  0.2470257  0.6094287    0.00000       Uiso       1.00
       C25          C  0.4184751  0.5732054  0.5513003    0.00000       Uiso       1.00
       C26          C  0.4399699  0.5826380  0.5647476    0.00000       Uiso       1.00
       C27          C  0.4596585  0.5662748  0.5531421    0.00000       Uiso       1.00
       C28          C  0.4176607  0.5473448  0.5254211    0.00000       Uiso       1.00
       C29          C  0.4376820  0.5315475  0.5133107    0.00000       Uiso       1.00
       C30          C  0.4588153  0.5400727  0.5272341    0.00000       Uiso       1.00
       H17          H  0.5281883  0.5496109  0.4091902    0.00000       Uiso       1.00
       H18          H  0.5658685  0.5791152  0.5197126    0.00000       Uiso       1.00
       H19          H  0.4009039  0.5383427  0.5150307    0.00000       Uiso       1.00
       H20          H  0.4415851  0.6027631  0.5843450    0.00000       Uiso       1.00
       C31          C  0.5861944  0.5302601  0.3459239    0.00000       Uiso       1.00
       C32          C  0.5646385  0.5444126  0.3622644    0.00000       Uiso       1.00
       C33          C  0.5438234  0.5375181  0.3982433    0.00000       Uiso       1.00
       C34          C  0.5859395  0.5085103  0.3665420    0.00000       Uiso       1.00
       C35          C  0.5648034  0.5010185  0.4021752    0.00000       Uiso       1.00
       C36          C  0.5435746  0.5157805  0.4191717    0.00000       Uiso       1.00
       H21          H  0.4753030  0.5744476  0.5649160    0.00000       Uiso       1.00
       H22          H  0.4729650  0.4006011  0.4602155    0.00000       Uiso       1.00
       H23          H  0.6026875  0.4978909  0.3555596    0.00000       Uiso       1.00
       H24          H  0.5638442  0.5608923  0.3471763    0.00000       Uiso       1.00
       C37          C  0.5824769  0.5508425  0.5723529    0.00000       Uiso       1.00
       C38          C  0.5599683  0.5154775  0.5774626    0.00000       Uiso       1.00
       C39          C  0.5399703  0.5026827  0.5613235    0.00000       Uiso       1.00
       C40          C  0.5839736  0.5731741  0.5511183    0.00000       Uiso       1.00
       C41          C  0.5636668  0.5606620  0.5356205    0.00000       Uiso       1.00
       C42          C  0.5415210  0.5249998  0.5397249    0.00000       Uiso       1.00
       H25          H  0.4324168  0.4245404  0.5707064    0.00000       Uiso       1.00
       H26          H  0.4360678  0.5119831  0.4932804    0.00000       Uiso       1.00
       H27          H  0.6014737  0.6002973  0.5454415    0.00000       Uiso       1.00
       H28          H  0.5577928  0.4975875  0.5940138    0.00000       Uiso       1.00
       C43          C  0.4128581  0.3458493  0.5302984    0.00000       Uiso       1.00
       C44          C  0.4124236  0.3709936  0.5569179    0.00000       Uiso       1.00
       C45          C  0.4338335  0.4065228  0.5491169    0.00000       Uiso       1.00
       C46          C  0.4354242  0.3575590  0.4955244    0.00000       Uiso       1.00
       C47          C  0.4565375  0.3933721  0.4875234    0.00000       Uiso       1.00
       C48          C  0.4560716  0.4188277  0.5141996    0.00000       Uiso       1.00
       H29          H  0.5235316  0.4751561  0.5659831    0.00000       Uiso       1.00
       H30          H  0.5656279  0.4840004  0.4165876    0.00000       Uiso       1.00
       H31          H  0.4367840  0.3389589  0.4743843    0.00000       Uiso       1.00
       H32          H  0.3949358  0.3636043  0.5839003    0.00000       Uiso       1.00
       C49          C  0.4988375  0.4713927  0.5260956    0.00000       Uiso       1.00
       C50          C  0.5012103  0.5284053  0.4741093    0.00000       Uiso       1.00
       C51          C  0.4781293  0.4589012  0.5065665    0.00000       Uiso       1.00
       C52          C  0.4998538  0.4680858  0.4663598    0.00000       Uiso       1.00
       H33          H  0.5140209  0.4532243  0.4562430    0.00000       Uiso       1.00
       H34          H  0.4857141  0.4596908  0.4515713    0.00000       Uiso       1.00
       C53          C  0.5206476  0.5118998  0.5203644    0.00000       Uiso       1.00
       C54          C  0.5000755  0.5316709  0.5338823    0.00000       Uiso       1.00
       H35          H  0.4851541  0.5261237  0.5627826    0.00000       Uiso       1.00
       H36          H  0.5151802  0.5605922  0.5297673    0.00000       Uiso       1.00
       C55          C  0.4794708  0.5205002  0.5142256    0.00000       Uiso       1.00
       H37          H  0.4869680  0.5203580  0.4595575    0.00000       Uiso       1.00
       C56          C  0.4585868  0.4799962  0.5202191    0.00000       Uiso       1.00
       H38          H  0.4435640  0.4705156  0.5064739    0.00000       Uiso       1.00
       H39          H  0.4428586  0.4747100  0.5489104    0.00000       Uiso       1.00
       C57          C  0.5414020  0.5197866  0.4800015    0.00000       Uiso       1.00
       H40          H  0.5162169  0.5573891  0.4696678    0.00000       Uiso       1.00
       C58          C  0.5217298  0.5082621  0.4592821    0.00000       Uiso       1.00
       H41          H  0.5572588  0.5484146  0.4743447    0.00000       Uiso       1.00
       H42          H  0.5562960  0.5059224  0.4707147    0.00000       Uiso       1.00
       H43          H  0.5128928  0.4563776  0.5164278    0.00000       Uiso       1.00
       H44          H  0.4838080  0.4653621  0.5548618    0.00000       Uiso       1.00
       C59          C  0.1471381  0.0144291  0.6890272    0.00000       Uiso       1.00
       C60          C  0.1367251  0.0003911  0.7219707    0.00000       Uiso       1.00
       C61          C  0.1142709  0.9654704  0.7318190    0.00000       Uiso       1.00
       C62          C  0.1347065  0.9930794  0.6660928    0.00000       Uiso       1.00
       C63          C  0.1122513  0.9581541  0.6758946    0.00000       Uiso       1.00
       C64          C  0.1005355  0.9437247  0.7095867    0.00000       Uiso       1.00
       H45          H  0.8896926  0.7562601  0.9543846    0.00000       Uiso       1.00
       H46          H  0.8793610  0.7199034  0.6781037    0.00000       Uiso       1.00
       H47          H  0.1428778  0.0041295  0.6391579    0.00000       Uiso       1.00
       H48          H  0.1465571  0.0174579  0.7410395    0.00000       Uiso       1.00
       C65          C  0.8508244  0.6887929  0.0137815    0.00000       Uiso       1.00
       C66          C  0.8610488  0.7215582  0.9995534    0.00000       Uiso       1.00
       C67          C  0.8837536  0.7315078  0.9647518    0.00000       Uiso       1.00
       C68          C  0.8636978  0.6661412  0.9927453    0.00000       Uiso       1.00
       C69          C  0.8864047  0.6760446  0.9579380    0.00000       Uiso       1.00
       C70          C  0.8979284  0.7095777  0.9433370    0.00000       Uiso       1.00
       H49          H  0.1081853  0.9552836  0.7567423    0.00000       Uiso       1.00
       H50          H  0.1216391  0.6812878  0.7228738    0.00000       Uiso       1.00
       H51          H  0.8556856  0.6393557  0.0039532    0.00000       Uiso       1.00
       H52          H  0.8508558  0.7403970  0.0163664    0.00000       Uiso       1.00
       C71          C  0.8374097  0.6412683  0.6521334    0.00000       Uiso       1.00
       C72          C  0.8510963  0.6215617  0.6536099    0.00000       Uiso       1.00
       C73          C  0.8754115  0.6372911  0.6633355    0.00000       Uiso       1.00
       C74          C  0.8484473  0.6769787  0.6604180    0.00000       Uiso       1.00
       C75          C  0.8727603  0.6927543  0.6701493    0.00000       Uiso       1.00
       C76          C  0.8877256  0.6736877  0.6706236    0.00000       Uiso       1.00
       H53          H  0.1180206  0.6681798  0.6226774    0.00000       Uiso       1.00
       H54          H  0.1045669  0.9421756  0.6565459    0.00000       Uiso       1.00
       H55          H  0.8376054  0.6934672  0.6592648    0.00000       Uiso       1.00
       H56          H  0.8424352  0.5924259  0.6468517    0.00000       Uiso       1.00
       C77          C  0.1646381  0.6557681  0.6447576    0.00000       Uiso       1.00
       C78          C  0.1511399  0.6567475  0.6245661    0.00000       Uiso       1.00
       C79          C  0.1265736  0.6659877  0.6397938    0.00000       Uiso       1.00
       C80          C  0.1531579  0.6640576  0.6804440    0.00000       Uiso       1.00
       C81          C  0.1285932  0.6733039  0.6957182    0.00000       Uiso       1.00
       C82          C  0.1138201  0.6732669  0.6761529    0.00000       Uiso       1.00
       H57          H  0.8841109  0.6205333  0.6658959    0.00000       Uiso       1.00
       H58          H  0.8944426  0.6568901  0.9421768    0.00000       Uiso       1.00
       H59          H  0.1638415  0.6633060  0.6973239    0.00000       Uiso       1.00
       H60          H  0.1601622  0.6499776  0.5954422    0.00000       Uiso       1.00
       C83          C  0.0788759  0.9053256  0.7186864    0.00000       Uiso       1.00
       C84          C  0.0561993  0.8870463  0.7062022    0.00000       Uiso       1.00
       C85          C  0.0370881  0.8506769  0.7132263    0.00000       Uiso       1.00
       C86          C  0.0814777  0.8862299  0.7389509    0.00000       Uiso       1.00
       C87          C  0.0620448  0.8501725  0.7465802    0.00000       Uiso       1.00
       C88          C  0.0397266  0.8312755  0.7334481    0.00000       Uiso       1.00
       H61          H  0.9751822  0.7895129  0.8492255    0.00000       Uiso       1.00
       H62          H  0.9307459  0.7499200  0.7436502    0.00000       Uiso       1.00
       H63          H  0.0991796  0.8987888  0.7482399    0.00000       Uiso       1.00
       H64          H  0.0532059  0.9009112  0.6909199    0.00000       Uiso       1.00
       C89          C  0.9198691  0.7184969  0.9049767    0.00000       Uiso       1.00
       C90          C  0.9406715  0.7536413  0.8928712    0.00000       Uiso       1.00
       C91          C  0.9600788  0.7619557  0.8567163    0.00000       Uiso       1.00
       C92          C  0.9194467  0.6918629  0.8798555    0.00000       Uiso       1.00
       C93          C  0.9392079  0.7000225  0.8439340    0.00000       Uiso       1.00
       C94          C  0.9596339  0.7352533  0.8312891    0.00000       Uiso       1.00
       H65          H  0.0204590  0.8382242  0.7024432    0.00000       Uiso       1.00
       H66          H  0.0312118  0.6897839  0.7696298    0.00000       Uiso       1.00
       H67          H  0.9031897  0.6645306  0.8876375    0.00000       Uiso       1.00
       H68          H  0.9419667  0.7748262  0.9114258    0.00000       Uiso       1.00
       C95          C  0.9116727  0.6897411  0.6844183    0.00000       Uiso       1.00
       C96          C  0.9348754  0.6785114  0.6729794    0.00000       Uiso       1.00
       C97          C  0.9562284  0.6923113  0.6873457    0.00000       Uiso       1.00
       C98          C  0.9108558  0.7156876  0.7102116    0.00000       Uiso       1.00
       C99          C  0.9324847  0.7299752  0.7240165    0.00000       Uiso       1.00
      C100          C  0.9553757  0.7182680  0.7134948    0.00000       Uiso       1.00
       H69          H  0.0662982  0.7342082  0.6669886    0.00000       Uiso       1.00
       H70          H  0.0650498  0.8369772  0.7624124    0.00000       Uiso       1.00
       H71          H  0.8929099  0.7244466  0.7207202    0.00000       Uiso       1.00
       H72          H  0.9365448  0.6589538  0.6528248    0.00000       Uiso       1.00
      C101          C  0.0895906  0.6865560  0.6914226    0.00000       Uiso       1.00
      C102          C  0.0882312  0.7061815  0.6703348    0.00000       Uiso       1.00
      C103          C  0.0662791  0.7194765  0.6845421    0.00000       Uiso       1.00
      C104          C  0.0682604  0.6808240  0.7273139    0.00000       Uiso       1.00
      C105          C  0.0466149  0.6947941  0.7417960    0.00000       Uiso       1.00
      C106          C  0.0452791  0.7147572  0.7207198    0.00000       Uiso       1.00
       H73          H  0.9731560  0.6821696  0.6777071    0.00000       Uiso       1.00
       H74          H  0.9379260  0.6784186  0.8259348    0.00000       Uiso       1.00
       H75          H  0.0682861  0.6654611  0.7442995    0.00000       Uiso       1.00
       H76          H  0.1047303  0.7123219  0.6428459    0.00000       Uiso       1.00
      C107          C  0.0003393  0.7161439  0.7178558    0.00000       Uiso       1.00
      C108          C  0.9996096  0.7835158  0.7815685    0.00000       Uiso       1.00
      C109          C  0.0225821  0.7318712  0.7356945    0.00000       Uiso       1.00
      C110          C  0.0024287  0.7258390  0.7764933    0.00000       Uiso       1.00
       H77          H  0.9888207  0.6969634  0.7826456    0.00000       Uiso       1.00
       H78          H  0.0176886  0.7370596  0.7901479    0.00000       Uiso       1.00
      C111          C  0.9777882  0.7335283  0.7310448    0.00000       Uiso       1.00
      C112          C  0.9976394  0.7739059  0.7228914    0.00000       Uiso       1.00
       H79          H  0.0114030  0.7785143  0.6937538    0.00000       Uiso       1.00
       H80          H  0.9820142  0.7868589  0.7323554    0.00000       Uiso       1.00
      C113          C  0.0197611  0.7908821  0.7411329    0.00000       Uiso       1.00
       H81          H  0.0149560  0.7951497  0.7950671    0.00000       Uiso       1.00
      C114          C  0.0413581  0.7723773  0.7276353    0.00000       Uiso       1.00
       H82          H  0.0574798  0.7832624  0.7400674    0.00000       Uiso       1.00
       H83          H  0.0559465  0.7782242  0.6988035    0.00000       Uiso       1.00
      C115          C  0.9586503  0.7273310  0.7717732    0.00000       Uiso       1.00
       H84          H  0.9840998  0.7967223  0.7913756    0.00000       Uiso       1.00
      C116          C  0.9798856  0.7431333  0.7909472    0.00000       Uiso       1.00
       H85          H  0.9423457  0.7394919  0.7826684    0.00000       Uiso       1.00
       H86          H  0.9442448  0.6984347  0.7772748    0.00000       Uiso       1.00
       H87          H  0.9868243  0.6871339  0.7235349    0.00000       Uiso       1.00
       H88          H  0.0142274  0.7204186  0.6887543    0.00000       Uiso       1.00
      C117          C  0.7297912  0.5783047  0.6250111    0.00000       Uiso       1.00
      C118          C  0.7560990  0.5920988  0.6309334    0.00000       Uiso       1.00
       H89          H  0.7203075  0.5509469  0.6178308    0.00000       Uiso       1.00
       H90          H  0.7653053  0.5739538  0.6281975    0.00000       Uiso       1.00
        N1          N  0.6784659  0.6058983  0.6186712    0.00000       Uiso       1.00
      C119          C  0.7697260  0.6279685  0.6396146    0.00000       Uiso       1.00
      C120          C  0.7160916  0.5996477  0.6277742    0.00000       Uiso       1.00
      C121          C  0.6900634  0.5858583  0.6188686    0.00000       Uiso       1.00
       H91          H  0.6805213  0.5584599  0.6123861    0.00000       Uiso       1.00
        N2          N  0.8108870  0.6244724  0.6450776    0.00000       Uiso       1.00
      C122          C  0.7969858  0.6423728  0.6463360    0.00000       Uiso       1.00
       H92          H  0.8054349  0.6698990  0.6526998    0.00000       Uiso       1.00
      C123          C  0.7289305  0.6350022  0.6362789    0.00000       Uiso       1.00
      C124          C  0.7552354  0.6489934  0.6422404    0.00000       Uiso       1.00
       H93          H  0.7637488  0.6764904  0.6485752    0.00000       Uiso       1.00
      C125          C  0.7406084  0.6474065  0.1466780    0.00000       Uiso       1.00
      C126          C  0.7676057  0.6591474  0.1148723    0.00000       Uiso       1.00
       H94          H  0.7318358  0.6660190  0.1627229    0.00000       Uiso       1.00
       H95          H  0.7780528  0.6867069  0.1080651    0.00000       Uiso       1.00
        N3          N  0.6853173  0.5687401  0.2047877    0.00000       Uiso       1.00
      C127          C  0.7803238  0.6358977  0.0933986    0.00000       Uiso       1.00
      C128          C  0.7253036  0.6121694  0.1579985    0.00000       Uiso       1.00
      C129          C  0.6984781  0.6006401  0.1925685    0.00000       Uiso       1.00
       H96          H  0.6896747  0.6192504  0.2079589    0.00000       Uiso       1.00
        N4          N  0.8237129  0.6798961  0.0468806    0.00000       Uiso       1.00
      C130          C  0.8083158  0.6479608  0.0598486    0.00000       Uiso       1.00
       H97          H  0.8159663  0.6281469  0.0456673    0.00000       Uiso       1.00
      C131          C  0.7372183  0.5886726  0.1374742    0.00000       Uiso       1.00
      C132          C  0.7642038  0.6002093  0.1056365    0.00000       Uiso       1.00
       H98          H  0.7719218  0.5804877  0.0914202    0.00000       Uiso       1.00
      C133          C  0.2717367  0.6276910  0.5806952    0.00000       Uiso       1.00
      C134          C  0.2455428  0.6338529  0.5947604    0.00000       Uiso       1.00
       H99          H  0.2810232  0.6205303  0.5533023    0.00000       Uiso       1.00
      H100          H  0.2362184  0.6313109  0.5767767    0.00000       Uiso       1.00
        N5          N  0.3231790  0.6205978  0.6075680    0.00000       Uiso       1.00
      C135          C  0.2321702  0.6425190  0.6306854    0.00000       Uiso       1.00
      C136          C  0.2855724  0.6301921  0.6018139    0.00000       Uiso       1.00
      C137          C  0.3114696  0.6210381  0.5877399    0.00000       Uiso       1.00
      H101          H  0.3208183  0.6145776  0.5603098    0.00000       Uiso       1.00
        N6          N  0.1910233  0.6484827  0.6276941    0.00000       Uiso       1.00
      C138          C  0.2050325  0.6494902  0.6453735    0.00000       Uiso       1.00
      H102          H  0.1967767  0.6558188  0.6729180    0.00000       Uiso       1.00
      C139          C  0.2729839  0.6386750  0.6372160    0.00000       Uiso       1.00
      C140          C  0.2467944  0.6448751  0.6514778    0.00000       Uiso       1.00
      H103          H  0.2384740  0.6511754  0.6789938    0.00000       Uiso       1.00
      C141          C  0.2578741  0.1468562  0.6473154    0.00000       Uiso       1.00
      C142          C  0.2307628  0.1151594  0.6591337    0.00000       Uiso       1.00
      H104          H  0.2668437  0.1627623  0.6658437    0.00000       Uiso       1.00
      H105          H  0.2204338  0.1082867  0.6866605    0.00000       Uiso       1.00
        N7          N  0.3130480  0.2050222  0.5686730    0.00000       Uiso       1.00
      C143          C  0.2177903  0.0938731  0.6360011    0.00000       Uiso       1.00
      C144          C  0.2730426  0.1582491  0.6121131    0.00000       Uiso       1.00
      C145          C  0.2999992  0.1927219  0.6005229    0.00000       Uiso       1.00
      H106          H  0.3089959  0.2079705  0.6190450    0.00000       Uiso       1.00
        N8          N  0.1743871  0.0474071  0.6800475    0.00000       Uiso       1.00
      C146          C  0.1896763  0.0604344  0.6481417    0.00000       Uiso       1.00
      H107          H  0.1818323  0.0463936  0.6284147    0.00000       Uiso       1.00
      C147          C  0.2608776  0.1379084  0.5887306    0.00000       Uiso       1.00
      C148          C  0.2337768  0.1061805  0.6003451    0.00000       Uiso       1.00
      H108          H  0.2258657  0.0921048  0.5807107    0.00000       Uiso       1.00
      C149          C  0.7148702  0.6584945  0.6385343    0.00000       Uiso       1.00
        F1          F  0.7155892  0.6598271  0.6062739    0.00000       Uiso       1.00
        F2          F  0.7309291  0.6924205  0.6472574    0.00000       Uiso       1.00
        F3          F  0.6844138  0.6449496  0.6640537    0.00000       Uiso       1.00
      C150          C  0.7214046  0.5508697  0.1497249    0.00000       Uiso       1.00
        F4          F  0.7207899  0.5495871  0.1819346    0.00000       Uiso       1.00
        F5          F  0.7367653  0.5319948  0.1257452    0.00000       Uiso       1.00
        F6          F  0.6913252  0.5354160  0.1535999    0.00000       Uiso       1.00
      C151          C  0.2871898  0.6406503  0.6604685    0.00000       Uiso       1.00
        F7          F  0.2862933  0.6082622  0.6616243    0.00000       Uiso       1.00
        F8          F  0.2713744  0.6493964  0.6944851    0.00000       Uiso       1.00
        F9          F  0.3177136  0.6660073  0.6467798    0.00000       Uiso       1.00
      C152          C  0.2765459  0.1502439  0.5509722    0.00000       Uiso       1.00
       F10          F  0.2773378  0.1825819  0.5498670    0.00000       Uiso       1.00
       F11          F  0.2609414  0.1264466  0.5322122    0.00000       Uiso       1.00
       F12          F  0.3065577  0.1538855  0.5352664    0.00000       Uiso       1.00
