data_116
_audit_creation_date              0000-00-00
_audit_creation_method            'LanYouShi'
_symmetry_space_group_name_H-M    'P1'
_cell_length_a                    40.8694000
_cell_length_b                    33.3460007
_cell_length_c                    32.6213989
_cell_angle_alpha                 89.9113007
_cell_angle_beta                  113.5408020
_cell_angle_gamma                 114.1248016
loop_
_atom_site_label
_atom_site_type_symbol
_atom_site_fract_x
_atom_site_fract_y
_atom_site_fract_z
_atom_site_U_iso_or_equiv
_atom_site_adp_type
_atom_site_occupancy
        C1          C  0.5972081  0.5406590  0.6524892    0.00000       Uiso       1.00
        C2          C  0.5816520  0.4979926  0.6272168    0.00000       Uiso       1.00
        C3          C  0.5514303  0.4851125  0.5827259    0.00000       Uiso       1.00
        C4          C  0.5820268  0.5702435  0.6326895    0.00000       Uiso       1.00
        C5          C  0.5518054  0.5574235  0.5882031    0.00000       Uiso       1.00
        C6          C  0.5345894  0.5138762  0.5625089    0.00000       Uiso       1.00
        H1          H  0.4573892  0.4276727  0.5413082    0.00000       Uiso       1.00
        H2          H  0.4578729  0.5209237  0.5483716    0.00000       Uiso       1.00
        H3          H  0.5942993  0.6051326  0.6528537    0.00000       Uiso       1.00
        H4          H  0.5936159  0.4733983  0.6428754    0.00000       Uiso       1.00
        C7          C  0.4021214  0.3500106  0.4435473    0.00000       Uiso       1.00
        C8          C  0.4175353  0.3695145  0.4891659    0.00000       Uiso       1.00
        C9          C  0.4479467  0.4132780  0.5065285    0.00000       Uiso       1.00
       C10          C  0.4176371  0.3748471  0.4155434    0.00000       Uiso       1.00
       C11          C  0.4480486  0.4186151  0.4328447    0.00000       Uiso       1.00
       C12          C  0.4651194  0.4385343  0.4792940    0.00000       Uiso       1.00
        H5          H  0.5418771  0.4527025  0.5637710    0.00000       Uiso       1.00
        H6          H  0.5420085  0.4595850  0.4687498    0.00000       Uiso       1.00
        H7          H  0.4054841  0.3594220  0.3782818    0.00000       Uiso       1.00
        H8          H  0.4052984  0.3496991  0.5125169    0.00000       Uiso       1.00
       C13          C  0.4031778  0.5536432  0.4589715    0.00000       Uiso       1.00
       C14          C  0.4185424  0.5493698  0.4287627    0.00000       Uiso       1.00
       C15          C  0.4486552  0.5355562  0.4417025    0.00000       Uiso       1.00
       C16          C  0.4184406  0.5440371  0.5023851    0.00000       Uiso       1.00
       C17          C  0.4485533  0.5302191  0.5153863    0.00000       Uiso       1.00
       C18          C  0.4655792  0.5271724  0.4860080    0.00000       Uiso       1.00
        H9          H  0.5426806  0.5891404  0.4785630    0.00000       Uiso       1.00
       H10          H  0.5425491  0.5822578  0.5735843    0.00000       Uiso       1.00
       H11          H  0.4063243  0.5474528  0.5274959    0.00000       Uiso       1.00
       H12          H  0.4065099  0.5571757  0.3932608    0.00000       Uiso       1.00
       C19          C  0.5974951  0.5556885  0.4449910    0.00000       Uiso       1.00
       C20          C  0.5822728  0.5831245  0.4548537    0.00000       Uiso       1.00
       C21          C  0.5519702  0.5660546  0.4690421    0.00000       Uiso       1.00
       C22          C  0.5818980  0.5108736  0.4493810    0.00000       Uiso       1.00
       C23          C  0.5515951  0.4937435  0.4635648    0.00000       Uiso       1.00
       C24          C  0.5347144  0.5204183  0.4721881    0.00000       Uiso       1.00
       H13          H  0.4580556  0.5304857  0.4163567    0.00000       Uiso       1.00
       H14          H  0.4575718  0.4372348  0.4092934    0.00000       Uiso       1.00
       Si1         Si  0.5000006  0.5000004  0.4999998    0.00000       Uiso       1.00
       H15          H  0.5938947  0.4879939  0.4413676    0.00000       Uiso       1.00
       H16          H  0.5945780  0.6197282  0.4513459    0.00000       Uiso       1.00
       C25          C  0.8956419  0.7022759  0.0941996    0.00000       Uiso       1.00
       C26          C  0.9118279  0.6737213  0.1147988    0.00000       Uiso       1.00
       C27          C  0.9421872  0.6876792  0.1592687    0.00000       Uiso       1.00
       C28          C  0.9103320  0.7450676  0.1186549    0.00000       Uiso       1.00
       C29          C  0.9406900  0.7590849  0.1631280    0.00000       Uiso       1.00
       C30          C  0.9585339  0.7313903  0.1841380    0.00000       Uiso       1.00
       H17          H  0.0363387  0.7267152  0.1989832    0.00000       Uiso       1.00
       H18          H  0.0344080  0.8187986  0.2039601    0.00000       Uiso       1.00
       H19          H  0.8975427  0.7688325  0.1023373    0.00000       Uiso       1.00
       H20          H  0.9002701  0.6387475  0.0953066    0.00000       Uiso       1.00
       C31          C  0.0927740  0.6969029  0.2896259    0.00000       Uiso       1.00
       C32          C  0.0769576  0.7054950  0.2458282    0.00000       Uiso       1.00
       C33          C  0.0461056  0.7181538  0.2322896    0.00000       Uiso       1.00
       C34          C  0.0772157  0.7010136  0.3196761    0.00000       Uiso       1.00
       C35          C  0.0463640  0.7136686  0.3061990    0.00000       Uiso       1.00
       C36          C  0.0288970  0.7209994  0.2615243    0.00000       Uiso       1.00
       H21          H  0.9522416  0.6635914  0.1745318    0.00000       Uiso       1.00
       H22          H  0.9525747  0.6578074  0.2698440    0.00000       Uiso       1.00
       H23          H  0.0896946  0.6940236  0.3554879    0.00000       Uiso       1.00
       H24          H  0.0892240  0.7021946  0.2208417    0.00000       Uiso       1.00
       C37          C  0.0885580  0.8979858  0.3004938    0.00000       Uiso       1.00
       C38          C  0.0736024  0.8733511  0.3289904    0.00000       Uiso       1.00
       C39          C  0.0439428  0.8291456  0.3124402    0.00000       Uiso       1.00
       C40          C  0.0733443  0.8778325  0.2551426    0.00000       Uiso       1.00
       C41          C  0.0436845  0.8336307  0.2385308    0.00000       Uiso       1.00
       C42          C  0.0270619  0.8085278  0.2662549    0.00000       Uiso       1.00
       H25          H  0.9498924  0.7857407  0.2767584    0.00000       Uiso       1.00
       H26          H  0.9495592  0.7915247  0.1814462    0.00000       Uiso       1.00
       H27          H  0.0851297  0.8974723  0.2313959    0.00000       Uiso       1.00
       H28          H  0.0856003  0.8893014  0.3660421    0.00000       Uiso       1.00
       C43          C  0.8963695  0.6896454  0.3023333    0.00000       Uiso       1.00
       C44          C  0.9109555  0.7342426  0.2970351    0.00000       Uiso       1.00
       C45          C  0.9411078  0.7518315  0.2826540    0.00000       Uiso       1.00
       C46          C  0.9124514  0.6628963  0.2931791    0.00000       Uiso       1.00
       C47          C  0.9426050  0.6804258  0.2787947    0.00000       Uiso       1.00
       C48          C  0.9588506  0.7258924  0.2747354    0.00000       Uiso       1.00
       H29          H  0.0348708  0.8107628  0.3363791    0.00000       Uiso       1.00
       H30          H  0.0368015  0.7186794  0.3314023    0.00000       Uiso       1.00
       Si2         Si  0.9933364  0.7467026  0.2466632    0.00000       Uiso       1.00
       H31          H  0.9009765  0.6264817  0.2974315    0.00000       Uiso       1.00
       H32          H  0.8982491  0.7565666  0.3044622    0.00000       Uiso       1.00
       C49          C  0.8001069  0.6108189  0.9469779    0.00000       Uiso       1.00
       C50          C  0.7729597  0.6161040  0.9103790    0.00000       Uiso       1.00
       C51          C  0.7021152  0.5584128  0.7978278    0.00000       Uiso       1.00
       C52          C  0.7239639  0.5899010  0.8358040    0.00000       Uiso       1.00
       H33          H  0.8052868  0.5813830  0.9471840    0.00000       Uiso       1.00
        O1          O  0.6512033  0.5363513  0.7215680    0.00000       Uiso       1.00
       C53          C  0.8212280  0.6427788  0.9840518    0.00000       Uiso       1.00
        O2          O  0.8496361  0.6424732  0.0235975    0.00000       Uiso       1.00
       C54          C  0.6754652  0.5648249  0.7621911    0.00000       Uiso       1.00
       C55          C  0.7511111  0.5846158  0.8724028    0.00000       Uiso       1.00
       H34          H  0.7554350  0.5546076  0.8712789    0.00000       Uiso       1.00
        O3          O  0.8401908  0.7080256  0.0260526    0.00000       Uiso       1.00
       C56          C  0.6701666  0.6015982  0.7635683    0.00000       Uiso       1.00
        O4          O  0.6417579  0.6019036  0.7240232    0.00000       Uiso       1.00
       C57          C  0.8159293  0.6795521  0.9854292    0.00000       Uiso       1.00
        B1          B  0.8608371  0.6837654  0.0490619    0.00000       Uiso       1.00
       C58          C  0.7402834  0.6597612  0.8752173    0.00000       Uiso       1.00
       H35          H  0.7359596  0.6897696  0.8763413    0.00000       Uiso       1.00
       C59          C  0.6912876  0.6335582  0.8006423    0.00000       Uiso       1.00
       C60          C  0.7184348  0.6282731  0.8372411    0.00000       Uiso       1.00
       C61          C  0.7892793  0.6859642  0.9497924    0.00000       Uiso       1.00
       C62          C  0.7674307  0.6544760  0.9118162    0.00000       Uiso       1.00
        B2          B  0.6305570  0.5606115  0.6985587    0.00000       Uiso       1.00
       H36          H  0.6861078  0.6629940  0.8004361    0.00000       Uiso       1.00
       C63          C  0.8011004  0.6866844  0.3540252    0.00000       Uiso       1.00
       C64          C  0.7737095  0.6544115  0.3633186    0.00000       Uiso       1.00
       C65          C  0.7029490  0.6420304  0.4049730    0.00000       Uiso       1.00
       C66          C  0.7246338  0.6320844  0.3887925    0.00000       Uiso       1.00
       H37          H  0.8066129  0.7214113  0.3591723    0.00000       Uiso       1.00
        O5          O  0.6519021  0.6136383  0.4301854    0.00000       Uiso       1.00
       C67          C  0.8220478  0.6755416  0.3380134    0.00000       Uiso       1.00
        O6          O  0.8506588  0.7040629  0.3270161    0.00000       Uiso       1.00
       C68          C  0.6760474  0.6091186  0.4137983    0.00000       Uiso       1.00
       C69          C  0.7520247  0.6643574  0.3794991    0.00000       Uiso       1.00
       H38          H  0.7566811  0.6988095  0.3851191    0.00000       Uiso       1.00
        O7          O  0.8404871  0.6288032  0.3147393    0.00000       Uiso       1.00
       C70          C  0.6703414  0.5668998  0.4069113    0.00000       Uiso       1.00
        O8          O  0.6417303  0.5383786  0.4179086    0.00000       Uiso       1.00
       C71          C  0.8163416  0.6333228  0.3311264    0.00000       Uiso       1.00
        B3          B  0.8615225  0.6736893  0.3125987    0.00000       Uiso       1.00
       C72          C  0.7403644  0.5780841  0.3654256    0.00000       Uiso       1.00
       H39          H  0.7357080  0.5436319  0.3598056    0.00000       Uiso       1.00
       C73          C  0.6912887  0.5557570  0.3908996    0.00000       Uiso       1.00
       C74          C  0.7186796  0.5880300  0.3816061    0.00000       Uiso       1.00
       C75          C  0.7894401  0.6004111  0.3399517    0.00000       Uiso       1.00
       C76          C  0.7677553  0.6103570  0.3561322    0.00000       Uiso       1.00
        B4          B  0.6308666  0.5687522  0.4323261    0.00000       Uiso       1.00
       H40          H  0.6857761  0.5210302  0.3857525    0.00000       Uiso       1.00
       C77          C  0.1897249  0.6483566  0.3945728    0.00000       Uiso       1.00
       C78          C  0.2199422  0.6349704  0.4033892    0.00000       Uiso       1.00
       H41          H  0.1801619  0.6504816  0.4206981    0.00000       Uiso       1.00
        N1          N  0.1237795  0.6828786  0.3026292    0.00000       Uiso       1.00
       C79          C  0.2322469  0.6322468  0.3696271    0.00000       Uiso       1.00
       C80          C  0.1718954  0.6589767  0.3520947    0.00000       Uiso       1.00
       C81          C  0.1400652  0.6731371  0.3419889    0.00000       Uiso       1.00
       H42          H  0.1304732  0.6752746  0.3681134    0.00000       Uiso       1.00
       H43          H  0.2342528  0.6264166  0.4378889    0.00000       Uiso       1.00
       C82          C  0.3113298  0.5944898  0.4300041    0.00000       Uiso       1.00
       C83          C  0.2812658  0.6077791  0.4216267    0.00000       Uiso       1.00
        N2          N  0.3721723  0.5676674  0.4459683    0.00000       Uiso       1.00
       C84          C  0.2637048  0.6182991  0.3789702    0.00000       Uiso       1.00
       C85          C  0.3240563  0.5915692  0.3965027    0.00000       Uiso       1.00
       C86          C  0.3558865  0.5774088  0.4066085    0.00000       Uiso       1.00
       H44          H  0.3654786  0.5752714  0.3804840    0.00000       Uiso       1.00
       H45          H  0.2712620  0.6099849  0.4491917    0.00000       Uiso       1.00
       C87          C  0.3062269  0.6021893  0.3540246    0.00000       Uiso       1.00
       C88          C  0.2760095  0.6155754  0.3452082    0.00000       Uiso       1.00
       H46          H  0.3157898  0.6000642  0.3278993    0.00000       Uiso       1.00
       H47          H  0.2615426  0.6241884  0.3108006    0.00000       Uiso       1.00
       C89          C  0.1846220  0.6560562  0.3185934    0.00000       Uiso       1.00
       C90          C  0.2146860  0.6427667  0.3269707    0.00000       Uiso       1.00
       H48          H  0.2249929  0.6404094  0.2997297    0.00000       Uiso       1.00
       C91          C  0.1866405  0.0430423  0.2931935    0.00000       Uiso       1.00
       C92          C  0.2171441  0.0864758  0.3147779    0.00000       Uiso       1.00
       H49          H  0.1770673  0.0314479  0.2574873    0.00000       Uiso       1.00
        N3          N  0.1198682  0.9428465  0.3186899    0.00000       Uiso       1.00
       C93          C  0.2294616  0.1013835  0.3608674    0.00000       Uiso       1.00
       C94          C  0.1685386  0.0146418  0.3176819    0.00000       Uiso       1.00
       C95          C  0.1364044  0.9688296  0.2957629    0.00000       Uiso       1.00
       H50          H  0.1268018  0.9571939  0.2600284    0.00000       Uiso       1.00
       H51          H  0.2316746  0.1093014  0.2947179    0.00000       Uiso       1.00
       C96          C  0.3093973  0.2178298  0.3801058    0.00000       Uiso       1.00
       C97          C  0.2790496  0.1746461  0.3582370    0.00000       Uiso       1.00
        N4          N  0.3708112  0.3051499  0.4253512    0.00000       Uiso       1.00
       C98          C  0.2612180  0.1466124  0.3831736    0.00000       Uiso       1.00
       C99          C  0.3221410  0.2333541  0.4263592    0.00000       Uiso       1.00
      C100          C  0.3542751  0.2791668  0.4482782    0.00000       Uiso       1.00
       H52          H  0.3638776  0.2908026  0.4840127    0.00000       Uiso       1.00
       H53          H  0.2690358  0.1625347  0.3206499    0.00000       Uiso       1.00
      C101          C  0.3040391  0.2049536  0.4508476    0.00000       Uiso       1.00
      C102          C  0.2735355  0.1615201  0.4292631    0.00000       Uiso       1.00
       H54          H  0.3136123  0.2165481  0.4865538    0.00000       Uiso       1.00
       H55          H  0.2588476  0.1384802  0.4490739    0.00000       Uiso       1.00
      C103          C  0.1812823  0.0301661  0.3639354    0.00000       Uiso       1.00
      C104          C  0.2116300  0.0733499  0.3858041    0.00000       Uiso       1.00
       H56          H  0.2219506  0.0859146  0.4233725    0.00000       Uiso       1.00
       H57          H  0.7071404  0.5054665  0.7634629    0.00000       Uiso       1.00
       H58          H  0.7097289  0.4996979  0.8231988    0.00000       Uiso       1.00
        N5          N  0.7066762  0.5181171  0.7945821    0.00000       Uiso       1.00
       H59          H  0.8114457  0.7590246  0.9693717    0.00000       Uiso       1.00
       H60          H  0.7544740  0.7245651  0.9392068    0.00000       Uiso       1.00
        N6          N  0.7847183  0.7262599  0.9530380    0.00000       Uiso       1.00
       H61          H  0.7084849  0.7002028  0.4446254    0.00000       Uiso       1.00
       H62          H  0.7112650  0.7086281  0.3875775    0.00000       Uiso       1.00
        N7          N  0.7079478  0.6870567  0.4130049    0.00000       Uiso       1.00
       H63          H  0.8109685  0.5489727  0.3422489    0.00000       Uiso       1.00
       H64          H  0.7540597  0.5270793  0.3153977    0.00000       Uiso       1.00
        N8          N  0.7844413  0.5553848  0.3319198    0.00000       Uiso       1.00
        O9          O  0.1672820  0.6664622  0.2762207    0.00000       Uiso       1.00
       H65          H  0.1458253  0.6757261  0.2732664    0.00000       Uiso       1.00
       O10          O  0.3286697  0.5840837  0.4723767    0.00000       Uiso       1.00
       H66          H  0.3501265  0.5748199  0.4753310    0.00000       Uiso       1.00
       O11          O  0.1636745  0.0024664  0.3888108    0.00000       Uiso       1.00
       H67          H  0.1420234  0.9718716  0.3701826    0.00000       Uiso       1.00
       O12          O  0.3270052  0.2455295  0.3552302    0.00000       Uiso       1.00
       H68          H  0.3486560  0.2761249  0.3738586    0.00000       Uiso       1.00
