data_117
_audit_creation_date              0000-00-00
_audit_creation_method            'LanYouShi'
_symmetry_space_group_name_H-M    'P1'
_cell_length_a                    30.3433990
_cell_length_b                    30.3433990
_cell_length_c                    49.5195999
_cell_angle_alpha                 90.0000000
_cell_angle_beta                  90.0000000
_cell_angle_gamma                 90.0000000
loop_
_atom_site_label
_atom_site_type_symbol
_atom_site_fract_x
_atom_site_fract_y
_atom_site_fract_z
_atom_site_U_iso_or_equiv
_atom_site_adp_type
_atom_site_occupancy
        H1          H  0.1946362  0.4999999  0.0941688    0.00000       Uiso       1.00
        H2          H  0.8053636  0.4999999  0.0941688    0.00000       Uiso       1.00
        H3          H  0.4999999  0.1946362  0.5941693    0.00000       Uiso       1.00
        H4          H  0.4999999  0.8053636  0.5941693    0.00000       Uiso       1.00
        H5          H  0.8053636  0.4999999  0.9058322    0.00000       Uiso       1.00
        H6          H  0.1946362  0.4999999  0.9058322    0.00000       Uiso       1.00
        H7          H  0.4999999  0.1946362  0.4058317    0.00000       Uiso       1.00
        H8          H  0.4999999  0.8053636  0.4058317    0.00000       Uiso       1.00
        H9          H  0.0446082  0.4999999  0.1170886    0.00000       Uiso       1.00
       H10          H  0.9553916  0.4999999  0.1170886    0.00000       Uiso       1.00
       H11          H  0.4999999  0.0446082  0.6170891    0.00000       Uiso       1.00
       H12          H  0.4999999  0.9553916  0.6170891    0.00000       Uiso       1.00
       H13          H  0.9553916  0.4999999  0.8829124    0.00000       Uiso       1.00
       H14          H  0.0446082  0.4999999  0.8829124    0.00000       Uiso       1.00
       H15          H  0.4999999  0.0446082  0.3829119    0.00000       Uiso       1.00
       H16          H  0.4999999  0.9553916  0.3829119    0.00000       Uiso       1.00
       H17          H  0.0927521  0.4999999  0.1490712    0.00000       Uiso       1.00
       H18          H  0.9072478  0.4999999  0.1490712    0.00000       Uiso       1.00
       H19          H  0.4999999  0.0927521  0.6490717    0.00000       Uiso       1.00
       H20          H  0.4999999  0.9072478  0.6490717    0.00000       Uiso       1.00
       H21          H  0.9072478  0.4999999  0.8509299    0.00000       Uiso       1.00
       H22          H  0.0927521  0.4999999  0.8509299    0.00000       Uiso       1.00
       H23          H  0.4999999  0.0927521  0.3509293    0.00000       Uiso       1.00
       H24          H  0.4999999  0.9072478  0.3509293    0.00000       Uiso       1.00
        C1          C  0.0441649  0.4999999  0.0599531    0.00000       Uiso       1.00
        C2          C  0.9558350  0.4999999  0.0599531    0.00000       Uiso       1.00
        C3          C  0.4999999  0.0441649  0.5599536    0.00000       Uiso       1.00
        C4          C  0.4999999  0.9558350  0.5599536    0.00000       Uiso       1.00
        C5          C  0.9558350  0.4999999  0.9400479    0.00000       Uiso       1.00
        C6          C  0.0441649  0.4999999  0.9400479    0.00000       Uiso       1.00
        C7          C  0.4999999  0.0441649  0.4400474    0.00000       Uiso       1.00
        C8          C  0.4999999  0.9558350  0.4400474    0.00000       Uiso       1.00
       Cl1         Cl  0.1660626  0.4999999  0.0492139    0.00000       Uiso       1.00
       Cl2         Cl  0.8339373  0.4999999  0.0492139    0.00000       Uiso       1.00
       Cl3         Cl  0.4999999  0.1660626  0.5492144    0.00000       Uiso       1.00
       Cl4         Cl  0.4999999  0.8339373  0.5492144    0.00000       Uiso       1.00
       Cl5         Cl  0.8339373  0.4999999  0.9507871    0.00000       Uiso       1.00
       Cl6         Cl  0.1660626  0.4999999  0.9507871    0.00000       Uiso       1.00
       Cl7         Cl  0.4999999  0.1660626  0.4507866    0.00000       Uiso       1.00
       Cl8         Cl  0.4999999  0.8339373  0.4507866    0.00000       Uiso       1.00
        C9          C  0.9598642  0.4999999  0.0306743    0.00000       Uiso       1.00
       C10          C  0.0401357  0.4999999  0.0306743    0.00000       Uiso       1.00
       C11          C  0.4999999  0.9598642  0.5306748    0.00000       Uiso       1.00
       C12          C  0.4999999  0.0401357  0.5306748    0.00000       Uiso       1.00
       C13          C  0.0401357  0.4999999  0.9693267    0.00000       Uiso       1.00
       C14          C  0.9598642  0.4999999  0.9693267    0.00000       Uiso       1.00
       C15          C  0.4999999  0.9598642  0.4693262    0.00000       Uiso       1.00
       C16          C  0.4999999  0.0401357  0.4693262    0.00000       Uiso       1.00
       C17          C  0.9234945  0.4999999  0.0139538    0.00000       Uiso       1.00
       C18          C  0.0765053  0.4999999  0.0139538    0.00000       Uiso       1.00
       C19          C  0.4999999  0.9234945  0.5139543    0.00000       Uiso       1.00
       C20          C  0.4999999  0.0765053  0.5139543    0.00000       Uiso       1.00
       C21          C  0.0765053  0.4999999  0.9860472    0.00000       Uiso       1.00
       C22          C  0.9234945  0.4999999  0.9860472    0.00000       Uiso       1.00
       C23          C  0.4999999  0.9234945  0.4860467    0.00000       Uiso       1.00
       C24          C  0.4999999  0.0765053  0.4860467    0.00000       Uiso       1.00
       C25          C  0.9172037  0.4999999  0.0794369    0.00000       Uiso       1.00
       C26          C  0.0827962  0.4999999  0.0794369    0.00000       Uiso       1.00
       C27          C  0.4999999  0.9172037  0.5794374    0.00000       Uiso       1.00
       C28          C  0.4999999  0.0827962  0.5794374    0.00000       Uiso       1.00
       C29          C  0.0827962  0.4999999  0.9205641    0.00000       Uiso       1.00
       C30          C  0.9172037  0.4999999  0.9205641    0.00000       Uiso       1.00
       C31          C  0.4999999  0.9172037  0.4205636    0.00000       Uiso       1.00
       C32          C  0.4999999  0.0827962  0.4205636    0.00000       Uiso       1.00
       C33          C  0.8381202  0.4999999  0.0982741    0.00000       Uiso       1.00
       C34          C  0.1618797  0.4999999  0.0982741    0.00000       Uiso       1.00
       C35          C  0.4999999  0.8381202  0.5982745    0.00000       Uiso       1.00
       C36          C  0.4999999  0.1618797  0.5982745    0.00000       Uiso       1.00
       C37          C  0.1618797  0.4999999  0.9017269    0.00000       Uiso       1.00
       C38          C  0.8381202  0.4999999  0.9017269    0.00000       Uiso       1.00
       C39          C  0.4999999  0.8381202  0.4017265    0.00000       Uiso       1.00
       C40          C  0.4999999  0.1618797  0.4017265    0.00000       Uiso       1.00
       C41          C  0.8489255  0.4999999  0.1259455    0.00000       Uiso       1.00
       C42          C  0.1510743  0.4999999  0.1259455    0.00000       Uiso       1.00
       C43          C  0.4999999  0.8489255  0.6259460    0.00000       Uiso       1.00
       C44          C  0.4999999  0.1510743  0.6259460    0.00000       Uiso       1.00
       C45          C  0.1510743  0.4999999  0.8740555    0.00000       Uiso       1.00
       C46          C  0.8489255  0.4999999  0.8740555    0.00000       Uiso       1.00
       C47          C  0.4999999  0.8489255  0.3740550    0.00000       Uiso       1.00
       C48          C  0.4999999  0.1510743  0.3740550    0.00000       Uiso       1.00
       C49          C  0.8167329  0.4999999  0.1474538    0.00000       Uiso       1.00
       C50          C  0.1832670  0.4999999  0.1474538    0.00000       Uiso       1.00
       C51          C  0.4999999  0.8167329  0.6474543    0.00000       Uiso       1.00
       C52          C  0.4999999  0.1832670  0.6474543    0.00000       Uiso       1.00
       C53          C  0.1832670  0.4999999  0.8525473    0.00000       Uiso       1.00
       C54          C  0.8167329  0.4999999  0.8525473    0.00000       Uiso       1.00
       C55          C  0.4999999  0.8167329  0.3525468    0.00000       Uiso       1.00
       C56          C  0.4999999  0.1832670  0.3525468    0.00000       Uiso       1.00
       C57          C  0.7704594  0.4999999  0.1424882    0.00000       Uiso       1.00
       C58          C  0.2295405  0.4999999  0.1424882    0.00000       Uiso       1.00
       C59          C  0.4999999  0.7704594  0.6424887    0.00000       Uiso       1.00
       C60          C  0.4999999  0.2295405  0.6424887    0.00000       Uiso       1.00
       C61          C  0.2295405  0.4999999  0.8575128    0.00000       Uiso       1.00
       C62          C  0.7704594  0.4999999  0.8575128    0.00000       Uiso       1.00
       C63          C  0.4999999  0.7704594  0.3575123    0.00000       Uiso       1.00
       C64          C  0.4999999  0.2295405  0.3575123    0.00000       Uiso       1.00
       C65          C  0.7388147  0.4999999  0.1631183    0.00000       Uiso       1.00
       C66          C  0.2611851  0.4999999  0.1631183    0.00000       Uiso       1.00
       C67          C  0.4999999  0.7388147  0.6631188    0.00000       Uiso       1.00
       C68          C  0.4999999  0.2611851  0.6631188    0.00000       Uiso       1.00
       C69          C  0.2611851  0.4999999  0.8368827    0.00000       Uiso       1.00
       C70          C  0.7388147  0.4999999  0.8368827    0.00000       Uiso       1.00
       C71          C  0.4999999  0.7388147  0.3368822    0.00000       Uiso       1.00
       C72          C  0.4999999  0.2611851  0.3368822    0.00000       Uiso       1.00
       C73          C  0.7508206  0.4999999  0.1907046    0.00000       Uiso       1.00
       C74          C  0.2491793  0.4999999  0.1907046    0.00000       Uiso       1.00
       C75          C  0.4999999  0.7508206  0.6907051    0.00000       Uiso       1.00
       C76          C  0.4999999  0.2491793  0.6907051    0.00000       Uiso       1.00
       C77          C  0.2491793  0.4999999  0.8092964    0.00000       Uiso       1.00
       C78          C  0.7508206  0.4999999  0.8092964    0.00000       Uiso       1.00
       C79          C  0.4999999  0.7508206  0.3092959    0.00000       Uiso       1.00
       C80          C  0.4999999  0.2491793  0.3092959    0.00000       Uiso       1.00
       C81          C  0.7965646  0.4999999  0.1964612    0.00000       Uiso       1.00
       C82          C  0.2034353  0.4999999  0.1964612    0.00000       Uiso       1.00
       C83          C  0.4999999  0.7965646  0.6964617    0.00000       Uiso       1.00
       C84          C  0.4999999  0.2034353  0.6964617    0.00000       Uiso       1.00
       C85          C  0.2034353  0.4999999  0.8035398    0.00000       Uiso       1.00
       C86          C  0.7965646  0.4999999  0.8035398    0.00000       Uiso       1.00
       C87          C  0.4999999  0.7965646  0.3035393    0.00000       Uiso       1.00
       C88          C  0.4999999  0.2034353  0.3035393    0.00000       Uiso       1.00
       C89          C  0.8280734  0.4999999  0.1754271    0.00000       Uiso       1.00
       C90          C  0.1719265  0.4999999  0.1754271    0.00000       Uiso       1.00
       C91          C  0.4999999  0.8280734  0.6754276    0.00000       Uiso       1.00
       C92          C  0.4999999  0.1719265  0.6754276    0.00000       Uiso       1.00
       C93          C  0.1719265  0.4999999  0.8245739    0.00000       Uiso       1.00
       C94          C  0.8280734  0.4999999  0.8245739    0.00000       Uiso       1.00
       C95          C  0.4999999  0.8280734  0.3245734    0.00000       Uiso       1.00
       C96          C  0.4999999  0.1719265  0.3245734    0.00000       Uiso       1.00
       H25          H  0.7573537  0.4999999  0.1235958    0.00000       Uiso       1.00
       H26          H  0.2426462  0.4999999  0.1235958    0.00000       Uiso       1.00
       H27          H  0.4999999  0.7573537  0.6235963    0.00000       Uiso       1.00
       H28          H  0.4999999  0.2426462  0.6235963    0.00000       Uiso       1.00
       H29          H  0.2426462  0.4999999  0.8764053    0.00000       Uiso       1.00
       H30          H  0.7573537  0.4999999  0.8764053    0.00000       Uiso       1.00
       H31          H  0.4999999  0.7573537  0.3764047    0.00000       Uiso       1.00
       H32          H  0.4999999  0.2426462  0.3764047    0.00000       Uiso       1.00
       H33          H  0.7062777  0.4999999  0.1575260    0.00000       Uiso       1.00
       H34          H  0.2937222  0.4999999  0.1575260    0.00000       Uiso       1.00
       H35          H  0.4999999  0.7062777  0.6575265    0.00000       Uiso       1.00
       H36          H  0.4999999  0.2937222  0.6575265    0.00000       Uiso       1.00
       H37          H  0.2937222  0.4999999  0.8424750    0.00000       Uiso       1.00
       H38          H  0.7062777  0.4999999  0.8424750    0.00000       Uiso       1.00
       H39          H  0.4999999  0.7062777  0.3424745    0.00000       Uiso       1.00
       H40          H  0.4999999  0.2937222  0.3424745    0.00000       Uiso       1.00
       Cl9         Cl  0.8161614  0.4999999  0.2285646    0.00000       Uiso       1.00
      Cl10         Cl  0.1838385  0.4999999  0.2285646    0.00000       Uiso       1.00
      Cl11         Cl  0.4999999  0.8161614  0.7285651    0.00000       Uiso       1.00
      Cl12         Cl  0.4999999  0.1838385  0.7285651    0.00000       Uiso       1.00
      Cl13         Cl  0.1838385  0.4999999  0.7714364    0.00000       Uiso       1.00
      Cl14         Cl  0.8161614  0.4999999  0.7714364    0.00000       Uiso       1.00
      Cl15         Cl  0.4999999  0.8161614  0.2714359    0.00000       Uiso       1.00
      Cl16         Cl  0.4999999  0.1838385  0.2714359    0.00000       Uiso       1.00
       H41          H  0.8600535  0.4999999  0.1815313    0.00000       Uiso       1.00
       H42          H  0.1399463  0.4999999  0.1815313    0.00000       Uiso       1.00
       H43          H  0.4999999  0.8600535  0.6815317    0.00000       Uiso       1.00
       H44          H  0.4999999  0.1399463  0.6815317    0.00000       Uiso       1.00
       H45          H  0.1399463  0.4999999  0.8184697    0.00000       Uiso       1.00
       H46          H  0.8600535  0.4999999  0.8184697    0.00000       Uiso       1.00
       H47          H  0.4999999  0.8600535  0.3184692    0.00000       Uiso       1.00
       H48          H  0.4999999  0.1399463  0.3184692    0.00000       Uiso       1.00
       C97          C  0.4999999  0.2821692  0.2890238    0.00000       Uiso       1.00
       C98          C  0.4999999  0.7178307  0.2890238    0.00000       Uiso       1.00
       C99          C  0.7178307  0.4999999  0.7890243    0.00000       Uiso       1.00
      C100          C  0.2821692  0.4999999  0.7890243    0.00000       Uiso       1.00
      C101          C  0.4999999  0.2821692  0.7109772    0.00000       Uiso       1.00
      C102          C  0.4999999  0.7178307  0.7109772    0.00000       Uiso       1.00
      C103          C  0.2821692  0.4999999  0.2109767    0.00000       Uiso       1.00
      C104          C  0.7178307  0.4999999  0.2109767    0.00000       Uiso       1.00
        N1          N  0.4999999  0.3250729  0.2965062    0.00000       Uiso       1.00
        N2          N  0.4999999  0.6749270  0.2965062    0.00000       Uiso       1.00
        N3          N  0.6749270  0.4999999  0.7965067    0.00000       Uiso       1.00
        N4          N  0.3250729  0.4999999  0.7965067    0.00000       Uiso       1.00
        N5          N  0.4999999  0.3250729  0.7034948    0.00000       Uiso       1.00
        N6          N  0.4999999  0.6749270  0.7034948    0.00000       Uiso       1.00
        N7          N  0.3250729  0.4999999  0.2034943    0.00000       Uiso       1.00
        N8          N  0.6749270  0.4999999  0.2034943    0.00000       Uiso       1.00
      C105          C  0.4999999  0.3644662  0.2838846    0.00000       Uiso       1.00
      C106          C  0.4999999  0.6355336  0.2838846    0.00000       Uiso       1.00
      C107          C  0.6355336  0.4999999  0.7838851    0.00000       Uiso       1.00
      C108          C  0.3644662  0.4999999  0.7838851    0.00000       Uiso       1.00
      C109          C  0.4999999  0.3644662  0.7161164    0.00000       Uiso       1.00
      C110          C  0.4999999  0.6355336  0.7161164    0.00000       Uiso       1.00
      C111          C  0.3644662  0.4999999  0.2161159    0.00000       Uiso       1.00
      C112          C  0.6355336  0.4999999  0.2161159    0.00000       Uiso       1.00
      C113          C  0.4999999  0.3721738  0.2558923    0.00000       Uiso       1.00
      C114          C  0.4999999  0.6278261  0.2558923    0.00000       Uiso       1.00
      C115          C  0.6278261  0.4999999  0.7558928    0.00000       Uiso       1.00
      C116          C  0.3721738  0.4999999  0.7558928    0.00000       Uiso       1.00
      C117          C  0.4999999  0.3721738  0.7441087    0.00000       Uiso       1.00
      C118          C  0.4999999  0.6278261  0.7441087    0.00000       Uiso       1.00
      C119          C  0.3721738  0.4999999  0.2441082    0.00000       Uiso       1.00
      C120          C  0.6278261  0.4999999  0.2441082    0.00000       Uiso       1.00
      C121          C  0.4999999  0.4007644  0.3013610    0.00000       Uiso       1.00
      C122          C  0.4999999  0.5992355  0.3013610    0.00000       Uiso       1.00
      C123          C  0.5992355  0.4999999  0.8013614    0.00000       Uiso       1.00
      C124          C  0.4007644  0.4999999  0.8013614    0.00000       Uiso       1.00
      C125          C  0.4999999  0.4007644  0.6986400    0.00000       Uiso       1.00
      C126          C  0.4999999  0.5992355  0.6986400    0.00000       Uiso       1.00
      C127          C  0.4007644  0.4999999  0.1986395    0.00000       Uiso       1.00
      C128          C  0.5992355  0.4999999  0.1986395    0.00000       Uiso       1.00
      C129          C  0.4999999  0.4158970  0.2460278    0.00000       Uiso       1.00
      C130          C  0.4999999  0.5841028  0.2460278    0.00000       Uiso       1.00
      C131          C  0.5841028  0.4999999  0.7460283    0.00000       Uiso       1.00
      C132          C  0.4158970  0.4999999  0.7460283    0.00000       Uiso       1.00
      C133          C  0.4999999  0.4158970  0.7539731    0.00000       Uiso       1.00
      C134          C  0.4999999  0.5841028  0.7539731    0.00000       Uiso       1.00
      C135          C  0.4158970  0.4999999  0.2539727    0.00000       Uiso       1.00
      C136          C  0.5841028  0.4999999  0.2539727    0.00000       Uiso       1.00
      C137          C  0.4999999  0.4439895  0.2912703    0.00000       Uiso       1.00
      C138          C  0.4999999  0.5560103  0.2912703    0.00000       Uiso       1.00
      C139          C  0.5560103  0.4999999  0.7912707    0.00000       Uiso       1.00
      C140          C  0.4439895  0.4999999  0.7912707    0.00000       Uiso       1.00
      C141          C  0.4999999  0.4439895  0.7087307    0.00000       Uiso       1.00
      C142          C  0.4999999  0.5560103  0.7087307    0.00000       Uiso       1.00
      C143          C  0.4439895  0.4999999  0.2087302    0.00000       Uiso       1.00
      C144          C  0.5560103  0.4999999  0.2087302    0.00000       Uiso       1.00
      C145          C  0.4999999  0.4538435  0.2632471    0.00000       Uiso       1.00
      C146          C  0.4999999  0.5461563  0.2632471    0.00000       Uiso       1.00
      C147          C  0.5461563  0.4999999  0.7632476    0.00000       Uiso       1.00
      C148          C  0.4538435  0.4999999  0.7632476    0.00000       Uiso       1.00
      C149          C  0.4999999  0.4538435  0.7367539    0.00000       Uiso       1.00
      C150          C  0.4999999  0.5461563  0.7367539    0.00000       Uiso       1.00
      C151          C  0.4538435  0.4999999  0.2367534    0.00000       Uiso       1.00
      C152          C  0.5461563  0.4999999  0.2367534    0.00000       Uiso       1.00
      C153          C  0.1311155  0.4999999  0.0763064    0.00000       Uiso       1.00
      C154          C  0.8688843  0.4999999  0.0763064    0.00000       Uiso       1.00
      C155          C  0.4999999  0.1311155  0.5763069    0.00000       Uiso       1.00
      C156          C  0.4999999  0.8688843  0.5763069    0.00000       Uiso       1.00
      C157          C  0.8688843  0.4999999  0.9236946    0.00000       Uiso       1.00
      C158          C  0.1311155  0.4999999  0.9236946    0.00000       Uiso       1.00
      C159          C  0.4999999  0.1311155  0.4236941    0.00000       Uiso       1.00
      C160          C  0.4999999  0.8688843  0.4236941    0.00000       Uiso       1.00
      C161          C  0.1053002  0.4999999  0.1299155    0.00000       Uiso       1.00
      C162          C  0.8946997  0.4999999  0.1299155    0.00000       Uiso       1.00
      C163          C  0.4999999  0.1053002  0.6299160    0.00000       Uiso       1.00
      C164          C  0.4999999  0.8946997  0.6299160    0.00000       Uiso       1.00
      C165          C  0.8946997  0.4999999  0.8700855    0.00000       Uiso       1.00
      C166          C  0.1053002  0.4999999  0.8700855    0.00000       Uiso       1.00
      C167          C  0.4999999  0.1053002  0.3700851    0.00000       Uiso       1.00
      C168          C  0.4999999  0.8946997  0.3700851    0.00000       Uiso       1.00
       H49          H  0.8947148  0.4999999  0.0216074    0.00000       Uiso       1.00
       H50          H  0.1052851  0.4999999  0.0216074    0.00000       Uiso       1.00
       H51          H  0.4999999  0.8947148  0.5216079    0.00000       Uiso       1.00
       H52          H  0.4999999  0.1052851  0.5216079    0.00000       Uiso       1.00
       H53          H  0.1052851  0.4999999  0.9783936    0.00000       Uiso       1.00
       H54          H  0.8947148  0.4999999  0.9783936    0.00000       Uiso       1.00
       H55          H  0.4999999  0.8947148  0.4783930    0.00000       Uiso       1.00
       H56          H  0.4999999  0.1052851  0.4783930    0.00000       Uiso       1.00
      C169          C  0.0746449  0.4999999  0.1084603    0.00000       Uiso       1.00
      C170          C  0.9253550  0.4999999  0.1084603    0.00000       Uiso       1.00
      C171          C  0.4999999  0.0746449  0.6084608    0.00000       Uiso       1.00
      C172          C  0.4999999  0.9253550  0.6084608    0.00000       Uiso       1.00
      C173          C  0.9253550  0.4999999  0.8915407    0.00000       Uiso       1.00
      C174          C  0.0746449  0.4999999  0.8915407    0.00000       Uiso       1.00
      C175          C  0.4999999  0.0746449  0.3915402    0.00000       Uiso       1.00
      C176          C  0.4999999  0.9253550  0.3915402    0.00000       Uiso       1.00
      C177          C  0.0000000  0.4999999  0.0150846    0.00000       Uiso       1.00
      C178          C  0.4999999  0.0000000  0.5150851    0.00000       Uiso       1.00
      C179          C  0.0000000  0.4999999  0.9849164    0.00000       Uiso       1.00
      C180          C  0.4999999  0.0000000  0.4849159    0.00000       Uiso       1.00
      C181          C  0.0000000  0.4999999  0.0704239    0.00000       Uiso       1.00
      C182          C  0.4999999  0.0000000  0.5704244    0.00000       Uiso       1.00
      C183          C  0.0000000  0.4999999  0.9295771    0.00000       Uiso       1.00
      C184          C  0.4999999  0.0000000  0.4295765    0.00000       Uiso       1.00
       H57          H  0.0000000  0.4999999  0.0892541    0.00000       Uiso       1.00
       H58          H  0.4999999  0.0000000  0.5892546    0.00000       Uiso       1.00
       H59          H  0.0000000  0.4999999  0.9107469    0.00000       Uiso       1.00
       H60          H  0.4999999  0.0000000  0.4107464    0.00000       Uiso       1.00
       H61          H  0.4999999  0.2738277  0.2689788    0.00000       Uiso       1.00
       H62          H  0.4999999  0.7261721  0.2689788    0.00000       Uiso       1.00
       H63          H  0.7261721  0.4999999  0.7689793    0.00000       Uiso       1.00
       H64          H  0.2738277  0.4999999  0.7689793    0.00000       Uiso       1.00
       H65          H  0.4999999  0.2738277  0.7310222    0.00000       Uiso       1.00
       H66          H  0.4999999  0.7261721  0.7310222    0.00000       Uiso       1.00
       H67          H  0.2738277  0.4999999  0.2310217    0.00000       Uiso       1.00
       H68          H  0.7261721  0.4999999  0.2310217    0.00000       Uiso       1.00
       H69          H  0.4999999  0.3957720  0.3218338    0.00000       Uiso       1.00
       H70          H  0.4999999  0.6042279  0.3218338    0.00000       Uiso       1.00
       H71          H  0.6042279  0.4999999  0.8218343    0.00000       Uiso       1.00
       H72          H  0.3957720  0.4999999  0.8218343    0.00000       Uiso       1.00
       H73          H  0.4999999  0.3957720  0.6781672    0.00000       Uiso       1.00
       H74          H  0.4999999  0.6042279  0.6781672    0.00000       Uiso       1.00
       H75          H  0.3957720  0.4999999  0.1781667    0.00000       Uiso       1.00
       H76          H  0.6042279  0.4999999  0.1781667    0.00000       Uiso       1.00
       H77          H  0.4999999  0.4670697  0.3056047    0.00000       Uiso       1.00
       H78          H  0.4999999  0.5329301  0.3056047    0.00000       Uiso       1.00
       H79          H  0.5329301  0.4999999  0.8056052    0.00000       Uiso       1.00
       H80          H  0.4670697  0.4999999  0.8056052    0.00000       Uiso       1.00
       H81          H  0.4999999  0.4670697  0.6943963    0.00000       Uiso       1.00
       H82          H  0.4999999  0.5329301  0.6943963    0.00000       Uiso       1.00
       H83          H  0.4670697  0.4999999  0.1943958    0.00000       Uiso       1.00
       H84          H  0.5329301  0.4999999  0.1943958    0.00000       Uiso       1.00
       H85          H  0.4999999  0.4200284  0.2255170    0.00000       Uiso       1.00
       H86          H  0.4999999  0.5799714  0.2255170    0.00000       Uiso       1.00
       H87          H  0.5799714  0.4999999  0.7255175    0.00000       Uiso       1.00
       H88          H  0.4200284  0.4999999  0.7255175    0.00000       Uiso       1.00
       H89          H  0.4999999  0.4200284  0.7744840    0.00000       Uiso       1.00
       H90          H  0.4999999  0.5799714  0.7744840    0.00000       Uiso       1.00
       H91          H  0.4200284  0.4999999  0.2744835    0.00000       Uiso       1.00
       H92          H  0.5799714  0.4999999  0.2744835    0.00000       Uiso       1.00
       H93          H  0.4999999  0.6537623  0.2427427    0.00000       Uiso       1.00
       H94          H  0.4999999  0.3462375  0.2427427    0.00000       Uiso       1.00
       H95          H  0.3462375  0.4999999  0.7427433    0.00000       Uiso       1.00
       H96          H  0.6537623  0.4999999  0.7427433    0.00000       Uiso       1.00
       H97          H  0.4999999  0.6537623  0.7572583    0.00000       Uiso       1.00
       H98          H  0.4999999  0.3462375  0.7572583    0.00000       Uiso       1.00
       H99          H  0.6537623  0.4999999  0.2572578    0.00000       Uiso       1.00
      H100          H  0.3462375  0.4999999  0.2572578    0.00000       Uiso       1.00
      C185          C  0.4999999  0.4999999  0.2500002    0.00000       Uiso       1.00
      C186          C  0.4999999  0.4999999  0.7500007    0.00000       Uiso       1.00
