data_118
_audit_creation_date              0000-00-00
_audit_creation_method            'LanYouShi'
_symmetry_space_group_name_H-M    'P1'
_cell_length_a                    30.9192009
_cell_length_b                    30.9192009
_cell_length_c                    47.7742996
_cell_angle_alpha                 90.0000000
_cell_angle_beta                  90.0000000
_cell_angle_gamma                 90.0000000
loop_
_atom_site_label
_atom_site_type_symbol
_atom_site_fract_x
_atom_site_fract_y
_atom_site_fract_z
_atom_site_U_iso_or_equiv
_atom_site_adp_type
_atom_site_occupancy
        H1          H  0.1902390  0.5000006  0.0919590    0.00000       Uiso       1.00
        H2          H  0.8097623  0.5000006  0.0919590    0.00000       Uiso       1.00
        H3          H  0.5000006  0.1902390  0.5919594    0.00000       Uiso       1.00
        H4          H  0.5000006  0.8097623  0.5919594    0.00000       Uiso       1.00
        H5          H  0.8097623  0.5000006  0.9080417    0.00000       Uiso       1.00
        H6          H  0.1902390  0.5000006  0.9080417    0.00000       Uiso       1.00
        H7          H  0.5000006  0.1902390  0.4080414    0.00000       Uiso       1.00
        H8          H  0.5000006  0.8097623  0.4080414    0.00000       Uiso       1.00
        H9          H  0.0447631  0.5000006  0.1221229    0.00000       Uiso       1.00
       H10          H  0.9552382  0.5000006  0.1221229    0.00000       Uiso       1.00
       H11          H  0.5000006  0.0447631  0.6221232    0.00000       Uiso       1.00
       H12          H  0.5000006  0.9552382  0.6221232    0.00000       Uiso       1.00
       H13          H  0.9552382  0.5000006  0.8778778    0.00000       Uiso       1.00
       H14          H  0.0447631  0.5000006  0.8778778    0.00000       Uiso       1.00
       H15          H  0.5000006  0.0447631  0.3778775    0.00000       Uiso       1.00
       H16          H  0.5000006  0.9552382  0.3778775    0.00000       Uiso       1.00
       H17          H  0.0955781  0.5000006  0.1539472    0.00000       Uiso       1.00
       H18          H  0.9044231  0.5000006  0.1539472    0.00000       Uiso       1.00
       H19          H  0.5000006  0.0955781  0.6539476    0.00000       Uiso       1.00
       H20          H  0.5000006  0.9044231  0.6539476    0.00000       Uiso       1.00
       H21          H  0.9044231  0.5000006  0.8460535    0.00000       Uiso       1.00
       H22          H  0.0955781  0.5000006  0.8460535    0.00000       Uiso       1.00
       H23          H  0.5000006  0.0955781  0.3460531    0.00000       Uiso       1.00
       H24          H  0.5000006  0.9044231  0.3460531    0.00000       Uiso       1.00
        C1          C  0.0428221  0.5000006  0.0621649    0.00000       Uiso       1.00
        C2          C  0.9571792  0.5000006  0.0621649    0.00000       Uiso       1.00
        C3          C  0.5000006  0.0428221  0.5621653    0.00000       Uiso       1.00
        C4          C  0.5000006  0.9571792  0.5621653    0.00000       Uiso       1.00
        C5          C  0.9571792  0.5000006  0.9378358    0.00000       Uiso       1.00
        C6          C  0.0428221  0.5000006  0.9378358    0.00000       Uiso       1.00
        C7          C  0.5000006  0.0428221  0.4378354    0.00000       Uiso       1.00
        C8          C  0.5000006  0.9571792  0.4378354    0.00000       Uiso       1.00
        F1          F  0.1481548  0.5000006  0.0546534    0.00000       Uiso       1.00
        F2          F  0.8518465  0.5000006  0.0546534    0.00000       Uiso       1.00
        F3          F  0.5000006  0.1481548  0.5546538    0.00000       Uiso       1.00
        F4          F  0.5000006  0.8518465  0.5546538    0.00000       Uiso       1.00
        F5          F  0.8518465  0.5000006  0.9453472    0.00000       Uiso       1.00
        F6          F  0.1481548  0.5000006  0.9453472    0.00000       Uiso       1.00
        F7          F  0.5000006  0.1481548  0.4453470    0.00000       Uiso       1.00
        F8          F  0.5000006  0.8518465  0.4453470    0.00000       Uiso       1.00
        C9          C  0.9604296  0.5000006  0.0317416    0.00000       Uiso       1.00
       C10          C  0.0395716  0.5000006  0.0317416    0.00000       Uiso       1.00
       C11          C  0.5000006  0.9604296  0.5317420    0.00000       Uiso       1.00
       C12          C  0.5000006  0.0395716  0.5317420    0.00000       Uiso       1.00
       C13          C  0.0395716  0.5000006  0.9682591    0.00000       Uiso       1.00
       C14          C  0.9604296  0.5000006  0.9682591    0.00000       Uiso       1.00
       C15          C  0.5000006  0.9604296  0.4682587    0.00000       Uiso       1.00
       C16          C  0.5000006  0.0395716  0.4682587    0.00000       Uiso       1.00
       C17          C  0.9242832  0.5000006  0.0144705    0.00000       Uiso       1.00
       C18          C  0.0757181  0.5000006  0.0144705    0.00000       Uiso       1.00
       C19          C  0.5000006  0.9242832  0.5144709    0.00000       Uiso       1.00
       C20          C  0.5000006  0.0757181  0.5144709    0.00000       Uiso       1.00
       C21          C  0.0757181  0.5000006  0.9855302    0.00000       Uiso       1.00
       C22          C  0.9242832  0.5000006  0.9855302    0.00000       Uiso       1.00
       C23          C  0.5000006  0.9242832  0.4855298    0.00000       Uiso       1.00
       C24          C  0.5000006  0.0757181  0.4855298    0.00000       Uiso       1.00
       C25          C  0.9198568  0.5000006  0.0824121    0.00000       Uiso       1.00
       C26          C  0.0801444  0.5000006  0.0824121    0.00000       Uiso       1.00
       C27          C  0.5000006  0.9198568  0.5824124    0.00000       Uiso       1.00
       C28          C  0.5000006  0.0801444  0.5824124    0.00000       Uiso       1.00
       C29          C  0.0801444  0.5000006  0.9175887    0.00000       Uiso       1.00
       C30          C  0.9198568  0.5000006  0.9175887    0.00000       Uiso       1.00
       C31          C  0.5000006  0.9198568  0.4175883    0.00000       Uiso       1.00
       C32          C  0.5000006  0.0801444  0.4175883    0.00000       Uiso       1.00
       C33          C  0.8409615  0.5000006  0.0987284    0.00000       Uiso       1.00
       C34          C  0.1590398  0.5000006  0.0987284    0.00000       Uiso       1.00
       C35          C  0.5000006  0.8409615  0.5987287    0.00000       Uiso       1.00
       C36          C  0.5000006  0.1590398  0.5987287    0.00000       Uiso       1.00
       C37          C  0.1590398  0.5000006  0.9012724    0.00000       Uiso       1.00
       C38          C  0.8409615  0.5000006  0.9012724    0.00000       Uiso       1.00
       C39          C  0.5000006  0.8409615  0.4012720    0.00000       Uiso       1.00
       C40          C  0.5000006  0.1590398  0.4012720    0.00000       Uiso       1.00
       C41          C  0.8492391  0.5000006  0.1277562    0.00000       Uiso       1.00
       C42          C  0.1507622  0.5000006  0.1277562    0.00000       Uiso       1.00
       C43          C  0.5000006  0.8492391  0.6277565    0.00000       Uiso       1.00
       C44          C  0.5000006  0.1507622  0.6277565    0.00000       Uiso       1.00
       C45          C  0.1507622  0.5000006  0.8722445    0.00000       Uiso       1.00
       C46          C  0.8492391  0.5000006  0.8722445    0.00000       Uiso       1.00
       C47          C  0.5000006  0.8492391  0.3722442    0.00000       Uiso       1.00
       C48          C  0.5000006  0.1507622  0.3722442    0.00000       Uiso       1.00
       C49          C  0.8156685  0.5000006  0.1486906    0.00000       Uiso       1.00
       C50          C  0.1843328  0.5000006  0.1486906    0.00000       Uiso       1.00
       C51          C  0.5000006  0.8156685  0.6486909    0.00000       Uiso       1.00
       C52          C  0.5000006  0.1843328  0.6486909    0.00000       Uiso       1.00
       C53          C  0.1843328  0.5000006  0.8513101    0.00000       Uiso       1.00
       C54          C  0.8156685  0.5000006  0.8513101    0.00000       Uiso       1.00
       C55          C  0.5000006  0.8156685  0.3513098    0.00000       Uiso       1.00
       C56          C  0.5000006  0.1843328  0.3513098    0.00000       Uiso       1.00
       C57          C  0.7708569  0.5000006  0.1416581    0.00000       Uiso       1.00
       C58          C  0.2291444  0.5000006  0.1416581    0.00000       Uiso       1.00
       C59          C  0.5000006  0.7708569  0.6416585    0.00000       Uiso       1.00
       C60          C  0.5000006  0.2291444  0.6416585    0.00000       Uiso       1.00
       C61          C  0.2291444  0.5000006  0.8583426    0.00000       Uiso       1.00
       C62          C  0.7708569  0.5000006  0.8583426    0.00000       Uiso       1.00
       C63          C  0.5000006  0.7708569  0.3583422    0.00000       Uiso       1.00
       C64          C  0.5000006  0.2291444  0.3583422    0.00000       Uiso       1.00
       C65          C  0.7377658  0.5000006  0.1617725    0.00000       Uiso       1.00
       C66          C  0.2622354  0.5000006  0.1617725    0.00000       Uiso       1.00
       C67          C  0.5000006  0.7377658  0.6617728    0.00000       Uiso       1.00
       C68          C  0.5000006  0.2622354  0.6617728    0.00000       Uiso       1.00
       C69          C  0.2622354  0.5000006  0.8382283    0.00000       Uiso       1.00
       C70          C  0.7377658  0.5000006  0.8382283    0.00000       Uiso       1.00
       C71          C  0.5000006  0.7377658  0.3382279    0.00000       Uiso       1.00
       C72          C  0.5000006  0.2622354  0.3382279    0.00000       Uiso       1.00
       C73          C  0.7471558  0.5000006  0.1907290    0.00000       Uiso       1.00
       C74          C  0.2528455  0.5000006  0.1907290    0.00000       Uiso       1.00
       C75          C  0.5000006  0.7471558  0.6907294    0.00000       Uiso       1.00
       C76          C  0.5000006  0.2528455  0.6907294    0.00000       Uiso       1.00
       C77          C  0.2528455  0.5000006  0.8092718    0.00000       Uiso       1.00
       C78          C  0.7471558  0.5000006  0.8092718    0.00000       Uiso       1.00
       C79          C  0.5000006  0.7471558  0.3092714    0.00000       Uiso       1.00
       C80          C  0.5000006  0.2528455  0.3092714    0.00000       Uiso       1.00
       C81          C  0.7912564  0.5000006  0.1984600    0.00000       Uiso       1.00
       C82          C  0.2087448  0.5000006  0.1984600    0.00000       Uiso       1.00
       C83          C  0.5000006  0.7912564  0.6984603    0.00000       Uiso       1.00
       C84          C  0.5000006  0.2087448  0.6984603    0.00000       Uiso       1.00
       C85          C  0.2087448  0.5000006  0.8015408    0.00000       Uiso       1.00
       C86          C  0.7912564  0.5000006  0.8015408    0.00000       Uiso       1.00
       C87          C  0.5000006  0.7912564  0.3015404    0.00000       Uiso       1.00
       C88          C  0.5000006  0.2087448  0.3015404    0.00000       Uiso       1.00
       C89          C  0.8241714  0.5000006  0.1780458    0.00000       Uiso       1.00
       C90          C  0.1758299  0.5000006  0.1780458    0.00000       Uiso       1.00
       C91          C  0.5000006  0.8241714  0.6780462    0.00000       Uiso       1.00
       C92          C  0.5000006  0.1758299  0.6780462    0.00000       Uiso       1.00
       C93          C  0.1758299  0.5000006  0.8219550    0.00000       Uiso       1.00
       C94          C  0.8241714  0.5000006  0.8219550    0.00000       Uiso       1.00
       C95          C  0.5000006  0.8241714  0.3219546    0.00000       Uiso       1.00
       C96          C  0.5000006  0.1758299  0.3219546    0.00000       Uiso       1.00
       H25          H  0.7601626  0.5000006  0.1215270    0.00000       Uiso       1.00
       H26          H  0.2398387  0.5000006  0.1215270    0.00000       Uiso       1.00
       H27          H  0.5000006  0.7601626  0.6215274    0.00000       Uiso       1.00
       H28          H  0.5000006  0.2398387  0.6215274    0.00000       Uiso       1.00
       H29          H  0.2398387  0.5000006  0.8784738    0.00000       Uiso       1.00
       H30          H  0.7601626  0.5000006  0.8784738    0.00000       Uiso       1.00
       H31          H  0.5000006  0.7601626  0.3784733    0.00000       Uiso       1.00
       H32          H  0.5000006  0.2398387  0.3784733    0.00000       Uiso       1.00
       H33          H  0.7063317  0.5000006  0.1549165    0.00000       Uiso       1.00
       H34          H  0.2936696  0.5000006  0.1549165    0.00000       Uiso       1.00
       H35          H  0.5000006  0.7063317  0.6549169    0.00000       Uiso       1.00
       H36          H  0.5000006  0.2936696  0.6549169    0.00000       Uiso       1.00
       H37          H  0.2936696  0.5000006  0.8450842    0.00000       Uiso       1.00
       H38          H  0.7063317  0.5000006  0.8450842    0.00000       Uiso       1.00
       H39          H  0.5000006  0.7063317  0.3450839    0.00000       Uiso       1.00
       H40          H  0.5000006  0.2936696  0.3450839    0.00000       Uiso       1.00
        F9          F  0.8028697  0.5000006  0.2248111    0.00000       Uiso       1.00
       F10          F  0.1971316  0.5000006  0.2248111    0.00000       Uiso       1.00
       F11          F  0.5000006  0.8028697  0.7248114    0.00000       Uiso       1.00
       F12          F  0.5000006  0.1971316  0.7248114    0.00000       Uiso       1.00
       F13          F  0.1971316  0.5000006  0.7751896    0.00000       Uiso       1.00
       F14          F  0.8028697  0.5000006  0.7751896    0.00000       Uiso       1.00
       F15          F  0.5000006  0.8028697  0.2751893    0.00000       Uiso       1.00
       F16          F  0.5000006  0.1971316  0.2751893    0.00000       Uiso       1.00
       H41          H  0.8547596  0.5000006  0.1857961    0.00000       Uiso       1.00
       H42          H  0.1452416  0.5000006  0.1857961    0.00000       Uiso       1.00
       H43          H  0.5000006  0.8547596  0.6857965    0.00000       Uiso       1.00
       H44          H  0.5000006  0.1452416  0.6857965    0.00000       Uiso       1.00
       H45          H  0.1452416  0.5000006  0.8142046    0.00000       Uiso       1.00
       H46          H  0.8547596  0.5000006  0.8142046    0.00000       Uiso       1.00
       H47          H  0.5000006  0.8547596  0.3142042    0.00000       Uiso       1.00
       H48          H  0.5000006  0.1452416  0.3142042    0.00000       Uiso       1.00
       C97          C  0.5000006  0.2862494  0.2890559    0.00000       Uiso       1.00
       C98          C  0.5000006  0.7137519  0.2890559    0.00000       Uiso       1.00
       C99          C  0.7137519  0.5000006  0.7890563    0.00000       Uiso       1.00
      C100          C  0.2862494  0.5000006  0.7890563    0.00000       Uiso       1.00
      C101          C  0.5000006  0.2862494  0.7109448    0.00000       Uiso       1.00
      C102          C  0.5000006  0.7137519  0.7109448    0.00000       Uiso       1.00
      C103          C  0.2862494  0.5000006  0.2109444    0.00000       Uiso       1.00
      C104          C  0.7137519  0.5000006  0.2109444    0.00000       Uiso       1.00
        N1          N  0.5000006  0.3279490  0.2976608    0.00000       Uiso       1.00
        N2          N  0.5000006  0.6720522  0.2976608    0.00000       Uiso       1.00
        N3          N  0.6720522  0.5000006  0.7976612    0.00000       Uiso       1.00
        N4          N  0.3279490  0.5000006  0.7976612    0.00000       Uiso       1.00
        N5          N  0.5000006  0.3279490  0.7023399    0.00000       Uiso       1.00
        N6          N  0.5000006  0.6720522  0.7023399    0.00000       Uiso       1.00
        N7          N  0.3279490  0.5000006  0.2023396    0.00000       Uiso       1.00
        N8          N  0.6720522  0.5000006  0.2023396    0.00000       Uiso       1.00
      C105          C  0.5000006  0.3668790  0.2848817    0.00000       Uiso       1.00
      C106          C  0.5000006  0.6331223  0.2848817    0.00000       Uiso       1.00
      C107          C  0.6331223  0.5000006  0.7848821    0.00000       Uiso       1.00
      C108          C  0.3668790  0.5000006  0.7848821    0.00000       Uiso       1.00
      C109          C  0.5000006  0.3668790  0.7151190    0.00000       Uiso       1.00
      C110          C  0.5000006  0.6331223  0.7151190    0.00000       Uiso       1.00
      C111          C  0.3668790  0.5000006  0.2151186    0.00000       Uiso       1.00
      C112          C  0.6331223  0.5000006  0.2151186    0.00000       Uiso       1.00
      C113          C  0.5000006  0.3746615  0.2558859    0.00000       Uiso       1.00
      C114          C  0.5000006  0.6253398  0.2558859    0.00000       Uiso       1.00
      C115          C  0.6253398  0.5000006  0.7558863    0.00000       Uiso       1.00
      C116          C  0.3746615  0.5000006  0.7558863    0.00000       Uiso       1.00
      C117          C  0.5000006  0.3746615  0.7441148    0.00000       Uiso       1.00
      C118          C  0.5000006  0.6253398  0.7441148    0.00000       Uiso       1.00
      C119          C  0.3746615  0.5000006  0.2441144    0.00000       Uiso       1.00
      C120          C  0.6253398  0.5000006  0.2441144    0.00000       Uiso       1.00
      C121          C  0.5000006  0.4024049  0.3030926    0.00000       Uiso       1.00
      C122          C  0.5000006  0.5975963  0.3030926    0.00000       Uiso       1.00
      C123          C  0.5975963  0.5000006  0.8030930    0.00000       Uiso       1.00
      C124          C  0.4024049  0.5000006  0.8030930    0.00000       Uiso       1.00
      C125          C  0.5000006  0.4024049  0.6969081    0.00000       Uiso       1.00
      C126          C  0.5000006  0.5975963  0.6969081    0.00000       Uiso       1.00
      C127          C  0.4024049  0.5000006  0.1969078    0.00000       Uiso       1.00
      C128          C  0.5975963  0.5000006  0.1969078    0.00000       Uiso       1.00
      C129          C  0.5000006  0.4175911  0.2457673    0.00000       Uiso       1.00
      C130          C  0.5000006  0.5824102  0.2457673    0.00000       Uiso       1.00
      C131          C  0.5824102  0.5000006  0.7457677    0.00000       Uiso       1.00
      C132          C  0.4175911  0.5000006  0.7457677    0.00000       Uiso       1.00
      C133          C  0.5000006  0.4175911  0.7542334    0.00000       Uiso       1.00
      C134          C  0.5000006  0.5824102  0.7542334    0.00000       Uiso       1.00
      C135          C  0.4175911  0.5000006  0.2542331    0.00000       Uiso       1.00
      C136          C  0.5824102  0.5000006  0.2542331    0.00000       Uiso       1.00
      C137          C  0.5000006  0.4449200  0.2927402    0.00000       Uiso       1.00
      C138          C  0.5000006  0.5550812  0.2927402    0.00000       Uiso       1.00
      C139          C  0.5550812  0.5000006  0.7927405    0.00000       Uiso       1.00
      C140          C  0.4449200  0.5000006  0.7927405    0.00000       Uiso       1.00
      C141          C  0.5000006  0.4449200  0.7072606    0.00000       Uiso       1.00
      C142          C  0.5000006  0.5550812  0.7072606    0.00000       Uiso       1.00
      C143          C  0.4449200  0.5000006  0.2072602    0.00000       Uiso       1.00
      C144          C  0.5550812  0.5000006  0.2072602    0.00000       Uiso       1.00
      C145          C  0.5000006  0.4547051  0.2637056    0.00000       Uiso       1.00
      C146          C  0.5000006  0.5452962  0.2637056    0.00000       Uiso       1.00
      C147          C  0.5452962  0.5000006  0.7637060    0.00000       Uiso       1.00
      C148          C  0.4547051  0.5000006  0.7637060    0.00000       Uiso       1.00
      C149          C  0.5000006  0.4547051  0.7362951    0.00000       Uiso       1.00
      C150          C  0.5000006  0.5452962  0.7362951    0.00000       Uiso       1.00
      C151          C  0.4547051  0.5000006  0.2362948    0.00000       Uiso       1.00
      C152          C  0.5452962  0.5000006  0.2362948    0.00000       Uiso       1.00
      C153          C  0.1265704  0.5000006  0.0777802    0.00000       Uiso       1.00
      C154          C  0.8734308  0.5000006  0.0777802    0.00000       Uiso       1.00
      C155          C  0.5000006  0.1265704  0.5777805    0.00000       Uiso       1.00
      C156          C  0.5000006  0.8734308  0.5777805    0.00000       Uiso       1.00
      C157          C  0.8734308  0.5000006  0.9222205    0.00000       Uiso       1.00
      C158          C  0.1265704  0.5000006  0.9222205    0.00000       Uiso       1.00
      C159          C  0.5000006  0.1265704  0.4222202    0.00000       Uiso       1.00
      C160          C  0.5000006  0.8734308  0.4222202    0.00000       Uiso       1.00
      C161          C  0.1061177  0.5000006  0.1336778    0.00000       Uiso       1.00
      C162          C  0.8938835  0.5000006  0.1336778    0.00000       Uiso       1.00
      C163          C  0.5000006  0.1061177  0.6336781    0.00000       Uiso       1.00
      C164          C  0.5000006  0.8938835  0.6336781    0.00000       Uiso       1.00
      C165          C  0.8938835  0.5000006  0.8663230    0.00000       Uiso       1.00
      C166          C  0.1061177  0.5000006  0.8663230    0.00000       Uiso       1.00
      C167          C  0.5000006  0.1061177  0.3663226    0.00000       Uiso       1.00
      C168          C  0.5000006  0.8938835  0.3663226    0.00000       Uiso       1.00
       H49          H  0.8952329  0.5000006  0.0220020    0.00000       Uiso       1.00
       H50          H  0.1047684  0.5000006  0.0220020    0.00000       Uiso       1.00
       H51          H  0.5000006  0.8952329  0.5220024    0.00000       Uiso       1.00
       H52          H  0.5000006  0.1047684  0.5220024    0.00000       Uiso       1.00
       H53          H  0.1047684  0.5000006  0.9779987    0.00000       Uiso       1.00
       H54          H  0.8952329  0.5000006  0.9779987    0.00000       Uiso       1.00
       H55          H  0.5000006  0.8952329  0.4779983    0.00000       Uiso       1.00
       H56          H  0.5000006  0.1047684  0.4779983    0.00000       Uiso       1.00
      C169          C  0.0739443  0.5000006  0.1126180    0.00000       Uiso       1.00
      C170          C  0.9260569  0.5000006  0.1126180    0.00000       Uiso       1.00
      C171          C  0.5000006  0.0739443  0.6126184    0.00000       Uiso       1.00
      C172          C  0.5000006  0.9260569  0.6126184    0.00000       Uiso       1.00
      C173          C  0.9260569  0.5000006  0.8873827    0.00000       Uiso       1.00
      C174          C  0.0739443  0.5000006  0.8873827    0.00000       Uiso       1.00
      C175          C  0.5000006  0.0739443  0.3873824    0.00000       Uiso       1.00
      C176          C  0.5000006  0.9260569  0.3873824    0.00000       Uiso       1.00
      C177          C  0.0000000  0.5000006  0.0156272    0.00000       Uiso       1.00
      C178          C  0.5000006  0.0000000  0.5156276    0.00000       Uiso       1.00
      C179          C  0.0000000  0.5000006  0.9843735    0.00000       Uiso       1.00
      C180          C  0.5000006  0.0000000  0.4843731    0.00000       Uiso       1.00
      C181          C  0.0000000  0.5000006  0.0734154    0.00000       Uiso       1.00
      C182          C  0.5000006  0.0000000  0.5734158    0.00000       Uiso       1.00
      C183          C  0.0000000  0.5000006  0.9265854    0.00000       Uiso       1.00
      C184          C  0.5000006  0.0000000  0.4265850    0.00000       Uiso       1.00
       H57          H  0.0000000  0.5000006  0.0932288    0.00000       Uiso       1.00
       H58          H  0.5000006  0.0000000  0.5932291    0.00000       Uiso       1.00
       H59          H  0.0000000  0.5000006  0.9067720    0.00000       Uiso       1.00
       H60          H  0.5000006  0.0000000  0.4067716    0.00000       Uiso       1.00
       H61          H  0.5000006  0.2788320  0.2681334    0.00000       Uiso       1.00
       H62          H  0.5000006  0.7211693  0.2681334    0.00000       Uiso       1.00
       H63          H  0.7211693  0.5000006  0.7681338    0.00000       Uiso       1.00
       H64          H  0.2788320  0.5000006  0.7681338    0.00000       Uiso       1.00
       H65          H  0.5000006  0.2788320  0.7318674    0.00000       Uiso       1.00
       H66          H  0.5000006  0.7211693  0.7318674    0.00000       Uiso       1.00
       H67          H  0.2788320  0.5000006  0.2318670    0.00000       Uiso       1.00
       H68          H  0.7211693  0.5000006  0.2318670    0.00000       Uiso       1.00
       H69          H  0.5000006  0.3973444  0.3242899    0.00000       Uiso       1.00
       H70          H  0.5000006  0.6026569  0.3242899    0.00000       Uiso       1.00
       H71          H  0.6026569  0.5000006  0.8242903    0.00000       Uiso       1.00
       H72          H  0.3973444  0.5000006  0.8242903    0.00000       Uiso       1.00
       H73          H  0.5000006  0.3973444  0.6757109    0.00000       Uiso       1.00
       H74          H  0.5000006  0.6026569  0.6757109    0.00000       Uiso       1.00
       H75          H  0.3973444  0.5000006  0.1757104    0.00000       Uiso       1.00
       H76          H  0.6026569  0.5000006  0.1757104    0.00000       Uiso       1.00
       H77          H  0.5000006  0.4675881  0.3076122    0.00000       Uiso       1.00
       H78          H  0.5000006  0.5324132  0.3076122    0.00000       Uiso       1.00
       H79          H  0.5324132  0.5000006  0.8076126    0.00000       Uiso       1.00
       H80          H  0.4675881  0.5000006  0.8076126    0.00000       Uiso       1.00
       H81          H  0.5000006  0.4675881  0.6923885    0.00000       Uiso       1.00
       H82          H  0.5000006  0.5324132  0.6923885    0.00000       Uiso       1.00
       H83          H  0.4675881  0.5000006  0.1923881    0.00000       Uiso       1.00
       H84          H  0.5324132  0.5000006  0.1923881    0.00000       Uiso       1.00
       H85          H  0.5000006  0.4217561  0.2245173    0.00000       Uiso       1.00
       H86          H  0.5000006  0.5782452  0.2245173    0.00000       Uiso       1.00
       H87          H  0.5782452  0.5000006  0.7245177    0.00000       Uiso       1.00
       H88          H  0.4217561  0.5000006  0.7245177    0.00000       Uiso       1.00
       H89          H  0.5000006  0.4217561  0.7754834    0.00000       Uiso       1.00
       H90          H  0.5000006  0.5782452  0.7754834    0.00000       Uiso       1.00
       H91          H  0.4217561  0.5000006  0.2754830    0.00000       Uiso       1.00
       H92          H  0.5782452  0.5000006  0.2754830    0.00000       Uiso       1.00
       H93          H  0.5000006  0.6506499  0.2421534    0.00000       Uiso       1.00
       H94          H  0.5000006  0.3493513  0.2421534    0.00000       Uiso       1.00
       H95          H  0.3493513  0.5000006  0.7421538    0.00000       Uiso       1.00
       H96          H  0.6506499  0.5000006  0.7421538    0.00000       Uiso       1.00
       H97          H  0.5000006  0.6506499  0.7578473    0.00000       Uiso       1.00
       H98          H  0.5000006  0.3493513  0.7578473    0.00000       Uiso       1.00
       H99          H  0.6506499  0.5000006  0.2578470    0.00000       Uiso       1.00
      H100          H  0.3493513  0.5000006  0.2578470    0.00000       Uiso       1.00
      C185          C  0.5000006  0.5000006  0.2500002    0.00000       Uiso       1.00
      C186          C  0.5000006  0.5000006  0.7500005    0.00000       Uiso       1.00
