data_119
_audit_creation_date              0000-00-00
_audit_creation_method            'LanYouShi'
_symmetry_space_group_name_H-M    'P1'
_cell_length_a                    31.8290005
_cell_length_b                    31.8290005
_cell_length_c                    45.1847000
_cell_angle_alpha                 90.0000000
_cell_angle_beta                  90.0000000
_cell_angle_gamma                 90.0000000
loop_
_atom_site_label
_atom_site_type_symbol
_atom_site_fract_x
_atom_site_fract_y
_atom_site_fract_z
_atom_site_U_iso_or_equiv
_atom_site_adp_type
_atom_site_occupancy
       H41          H  0.6865843  0.4999999  0.0895062    0.00000       Uiso       1.00
       H42          H  0.5487853  0.4999999  0.1291381    0.00000       Uiso       1.00
       H43          H  0.6017463  0.4999999  0.1604191    0.00000       Uiso       1.00
       H41          H  0.3134153  0.4999999  0.0895062    0.00000       Uiso       1.00
       H42          H  0.4512143  0.4999999  0.1291381    0.00000       Uiso       1.00
       H43          H  0.3982533  0.4999999  0.1604191    0.00000       Uiso       1.00
       H41          H  0.3134153  0.4999999  0.9104939    0.00000       Uiso       1.00
       H42          H  0.4512143  0.4999999  0.8708619    0.00000       Uiso       1.00
       H43          H  0.3982533  0.4999999  0.8395809    0.00000       Uiso       1.00
       H41          H  0.6865843  0.4999999  0.9104939    0.00000       Uiso       1.00
       H42          H  0.5487853  0.4999999  0.8708619    0.00000       Uiso       1.00
       H43          H  0.6017463  0.4999999  0.8395809    0.00000       Uiso       1.00
       H41          H  0.0000000  0.1865845  0.5895061    0.00000       Uiso       1.00
       H42          H  0.0000000  0.0487856  0.6291381    0.00000       Uiso       1.00
       H43          H  0.0000000  0.1017465  0.6604191    0.00000       Uiso       1.00
       H41          H  0.0000000  0.8134153  0.5895061    0.00000       Uiso       1.00
       H42          H  0.0000000  0.9512142  0.6291381    0.00000       Uiso       1.00
       H43          H  0.0000000  0.8982533  0.6604191    0.00000       Uiso       1.00
       H41          H  0.0000000  0.1865845  0.4104939    0.00000       Uiso       1.00
       H42          H  0.0000000  0.0487856  0.3708620    0.00000       Uiso       1.00
       H43          H  0.0000000  0.1017465  0.3395810    0.00000       Uiso       1.00
       H41          H  0.0000000  0.8134153  0.4104939    0.00000       Uiso       1.00
       H42          H  0.0000000  0.9512142  0.3708620    0.00000       Uiso       1.00
       H43          H  0.0000000  0.8982533  0.3395810    0.00000       Uiso       1.00
       C79          C  0.5428356  0.4999999  0.0655285    0.00000       Uiso       1.00
       C79          C  0.4571640  0.4999999  0.0655285    0.00000       Uiso       1.00
       C79          C  0.4571640  0.4999999  0.9344715    0.00000       Uiso       1.00
       C79          C  0.5428356  0.4999999  0.9344715    0.00000       Uiso       1.00
       C79          C  0.0000000  0.0428358  0.5655286    0.00000       Uiso       1.00
       C79          C  0.0000000  0.9571640  0.5655286    0.00000       Uiso       1.00
       C79          C  0.0000000  0.0428358  0.4344715    0.00000       Uiso       1.00
       C79          C  0.0000000  0.9571640  0.4344715    0.00000       Uiso       1.00
       H50          H  0.6350171  0.4999999  0.0586505    0.00000       Uiso       1.00
       H50          H  0.3649825  0.4999999  0.0586505    0.00000       Uiso       1.00
       H50          H  0.3649825  0.4999999  0.9413495    0.00000       Uiso       1.00
       H50          H  0.6350171  0.4999999  0.9413495    0.00000       Uiso       1.00
       H50          H  0.0000000  0.1350172  0.5586506    0.00000       Uiso       1.00
       H50          H  0.0000000  0.8649827  0.5586506    0.00000       Uiso       1.00
       H50          H  0.0000000  0.1350172  0.4413495    0.00000       Uiso       1.00
       H50          H  0.0000000  0.8649827  0.4413495    0.00000       Uiso       1.00
        C1          C  0.4612112  0.4999999  0.0334162    0.00000       Uiso       1.00
        C2          C  0.4258187  0.4999999  0.0152579    0.00000       Uiso       1.00
        C3          C  0.4205169  0.4999999  0.0860908    0.00000       Uiso       1.00
        C4          C  0.3425268  0.4999999  0.0988812    0.00000       Uiso       1.00
        C5          C  0.3474726  0.4999999  0.1299488    0.00000       Uiso       1.00
        C6          C  0.3126930  0.4999999  0.1503402    0.00000       Uiso       1.00
        C7          C  0.2700830  0.4999999  0.1406405    0.00000       Uiso       1.00
        C8          C  0.2358304  0.4999999  0.1602149    0.00000       Uiso       1.00
        C9          C  0.2417926  0.4999999  0.1911743    0.00000       Uiso       1.00
       C10          C  0.2835993  0.4999999  0.2015475    0.00000       Uiso       1.00
       C11          C  0.3178259  0.4999999  0.1817073    0.00000       Uiso       1.00
        H1          H  0.2621094  0.4999999  0.1188632    0.00000       Uiso       1.00
        H2          H  0.2062472  0.4999999  0.1513199    0.00000       Uiso       1.00
        H3          H  0.2896033  0.4999999  0.2238175    0.00000       Uiso       1.00
        H4          H  0.3467899  0.4999999  0.1912466    0.00000       Uiso       1.00
        C1          C  0.5387884  0.4999999  0.0334162    0.00000       Uiso       1.00
        C2          C  0.5741808  0.4999999  0.0152579    0.00000       Uiso       1.00
        C3          C  0.5794826  0.4999999  0.0860908    0.00000       Uiso       1.00
        C4          C  0.6574728  0.4999999  0.0988812    0.00000       Uiso       1.00
        C5          C  0.6525270  0.4999999  0.1299488    0.00000       Uiso       1.00
        C6          C  0.6873066  0.4999999  0.1503402    0.00000       Uiso       1.00
        C7          C  0.7299166  0.4999999  0.1406405    0.00000       Uiso       1.00
        C8          C  0.7641692  0.4999999  0.1602149    0.00000       Uiso       1.00
        C9          C  0.7582070  0.4999999  0.1911743    0.00000       Uiso       1.00
       C10          C  0.7164003  0.4999999  0.2015475    0.00000       Uiso       1.00
       C11          C  0.6821737  0.4999999  0.1817073    0.00000       Uiso       1.00
        H1          H  0.7378902  0.4999999  0.1188632    0.00000       Uiso       1.00
        H2          H  0.7937524  0.4999999  0.1513199    0.00000       Uiso       1.00
        H3          H  0.7103963  0.4999999  0.2238175    0.00000       Uiso       1.00
        H4          H  0.6532097  0.4999999  0.1912466    0.00000       Uiso       1.00
        C1          C  0.5387884  0.4999999  0.9665838    0.00000       Uiso       1.00
        C2          C  0.5741808  0.4999999  0.9847421    0.00000       Uiso       1.00
        C3          C  0.5794826  0.4999999  0.9139093    0.00000       Uiso       1.00
        C4          C  0.6574728  0.4999999  0.9011189    0.00000       Uiso       1.00
        C5          C  0.6525270  0.4999999  0.8700512    0.00000       Uiso       1.00
        C6          C  0.6873066  0.4999999  0.8496598    0.00000       Uiso       1.00
        C7          C  0.7299166  0.4999999  0.8593595    0.00000       Uiso       1.00
        C8          C  0.7641692  0.4999999  0.8397851    0.00000       Uiso       1.00
        C9          C  0.7582070  0.4999999  0.8088258    0.00000       Uiso       1.00
       C10          C  0.7164003  0.4999999  0.7984526    0.00000       Uiso       1.00
       C11          C  0.6821737  0.4999999  0.8182927    0.00000       Uiso       1.00
        H1          H  0.7378902  0.4999999  0.8811368    0.00000       Uiso       1.00
        H2          H  0.7937524  0.4999999  0.8486801    0.00000       Uiso       1.00
        H3          H  0.7103963  0.4999999  0.7761825    0.00000       Uiso       1.00
        H4          H  0.6532097  0.4999999  0.8087534    0.00000       Uiso       1.00
        C1          C  0.4612112  0.4999999  0.9665838    0.00000       Uiso       1.00
        C2          C  0.4258187  0.4999999  0.9847421    0.00000       Uiso       1.00
        C3          C  0.4205169  0.4999999  0.9139093    0.00000       Uiso       1.00
        C4          C  0.3425268  0.4999999  0.9011189    0.00000       Uiso       1.00
        C5          C  0.3474726  0.4999999  0.8700512    0.00000       Uiso       1.00
        C6          C  0.3126930  0.4999999  0.8496598    0.00000       Uiso       1.00
        C7          C  0.2700830  0.4999999  0.8593595    0.00000       Uiso       1.00
        C8          C  0.2358304  0.4999999  0.8397851    0.00000       Uiso       1.00
        C9          C  0.2417926  0.4999999  0.8088258    0.00000       Uiso       1.00
       C10          C  0.2835993  0.4999999  0.7984526    0.00000       Uiso       1.00
       C11          C  0.3178259  0.4999999  0.8182927    0.00000       Uiso       1.00
        H1          H  0.2621094  0.4999999  0.8811368    0.00000       Uiso       1.00
        H2          H  0.2062472  0.4999999  0.8486801    0.00000       Uiso       1.00
        H3          H  0.2896033  0.4999999  0.7761825    0.00000       Uiso       1.00
        H4          H  0.3467899  0.4999999  0.8087534    0.00000       Uiso       1.00
        C1          C  0.0000000  0.9612112  0.5334162    0.00000       Uiso       1.00
        C2          C  0.0000000  0.9258187  0.5152579    0.00000       Uiso       1.00
        C3          C  0.0000000  0.9205170  0.5860908    0.00000       Uiso       1.00
        C4          C  0.0000000  0.8425268  0.5988812    0.00000       Uiso       1.00
        C5          C  0.0000000  0.8474725  0.6299489    0.00000       Uiso       1.00
        C6          C  0.0000000  0.8126929  0.6503403    0.00000       Uiso       1.00
        C7          C  0.0000000  0.7700830  0.6406405    0.00000       Uiso       1.00
        C8          C  0.0000000  0.7358303  0.6602149    0.00000       Uiso       1.00
        C9          C  0.0000000  0.7417926  0.6911742    0.00000       Uiso       1.00
       C10          C  0.0000000  0.7835992  0.7015475    0.00000       Uiso       1.00
       C11          C  0.0000000  0.8178259  0.6817073    0.00000       Uiso       1.00
        H1          H  0.0000000  0.7621092  0.6188631    0.00000       Uiso       1.00
        H2          H  0.0000000  0.7062472  0.6513197    0.00000       Uiso       1.00
        H3          H  0.0000000  0.7896032  0.7238175    0.00000       Uiso       1.00
        H4          H  0.0000000  0.8467898  0.6912466    0.00000       Uiso       1.00
        C1          C  0.0000000  0.0387886  0.5334162    0.00000       Uiso       1.00
        C2          C  0.0000000  0.0741810  0.5152579    0.00000       Uiso       1.00
        C3          C  0.0000000  0.0794828  0.5860908    0.00000       Uiso       1.00
        C4          C  0.0000000  0.1574730  0.5988812    0.00000       Uiso       1.00
        C5          C  0.0000000  0.1525272  0.6299489    0.00000       Uiso       1.00
        C6          C  0.0000000  0.1873069  0.6503403    0.00000       Uiso       1.00
        C7          C  0.0000000  0.2299168  0.6406405    0.00000       Uiso       1.00
        C8          C  0.0000000  0.2641695  0.6602149    0.00000       Uiso       1.00
        C9          C  0.0000000  0.2582073  0.6911742    0.00000       Uiso       1.00
       C10          C  0.0000000  0.2164006  0.7015475    0.00000       Uiso       1.00
       C11          C  0.0000000  0.1821740  0.6817073    0.00000       Uiso       1.00
        H1          H  0.0000000  0.2378906  0.6188631    0.00000       Uiso       1.00
        H2          H  0.0000000  0.2937526  0.6513197    0.00000       Uiso       1.00
        H3          H  0.0000000  0.2103966  0.7238175    0.00000       Uiso       1.00
        H4          H  0.0000000  0.1532100  0.6912466    0.00000       Uiso       1.00
        C1          C  0.0000000  0.9612112  0.4665838    0.00000       Uiso       1.00
        C2          C  0.0000000  0.9258187  0.4847421    0.00000       Uiso       1.00
        C3          C  0.0000000  0.9205170  0.4139092    0.00000       Uiso       1.00
        C4          C  0.0000000  0.8425268  0.4011189    0.00000       Uiso       1.00
        C5          C  0.0000000  0.8474725  0.3700512    0.00000       Uiso       1.00
        C6          C  0.0000000  0.8126929  0.3496598    0.00000       Uiso       1.00
        C7          C  0.0000000  0.7700830  0.3593596    0.00000       Uiso       1.00
        C8          C  0.0000000  0.7358303  0.3397852    0.00000       Uiso       1.00
        C9          C  0.0000000  0.7417926  0.3088258    0.00000       Uiso       1.00
       C10          C  0.0000000  0.7835992  0.2984526    0.00000       Uiso       1.00
       C11          C  0.0000000  0.8178259  0.3182928    0.00000       Uiso       1.00
        H1          H  0.0000000  0.7621092  0.3811369    0.00000       Uiso       1.00
        H2          H  0.0000000  0.7062472  0.3486803    0.00000       Uiso       1.00
        H3          H  0.0000000  0.7896032  0.2761825    0.00000       Uiso       1.00
        H4          H  0.0000000  0.8467898  0.3087534    0.00000       Uiso       1.00
        C1          C  0.0000000  0.0387886  0.4665838    0.00000       Uiso       1.00
        C2          C  0.0000000  0.0741810  0.4847421    0.00000       Uiso       1.00
        C3          C  0.0000000  0.0794828  0.4139092    0.00000       Uiso       1.00
        C4          C  0.0000000  0.1574730  0.4011189    0.00000       Uiso       1.00
        C5          C  0.0000000  0.1525272  0.3700512    0.00000       Uiso       1.00
        C6          C  0.0000000  0.1873069  0.3496598    0.00000       Uiso       1.00
        C7          C  0.0000000  0.2299168  0.3593596    0.00000       Uiso       1.00
        C8          C  0.0000000  0.2641695  0.3397852    0.00000       Uiso       1.00
        C9          C  0.0000000  0.2582073  0.3088258    0.00000       Uiso       1.00
       C10          C  0.0000000  0.2164006  0.2984526    0.00000       Uiso       1.00
       C11          C  0.0000000  0.1821740  0.3182928    0.00000       Uiso       1.00
        H1          H  0.0000000  0.2378906  0.3811369    0.00000       Uiso       1.00
        H2          H  0.0000000  0.2937526  0.3486803    0.00000       Uiso       1.00
        H3          H  0.0000000  0.2103966  0.2761825    0.00000       Uiso       1.00
        H4          H  0.0000000  0.1532100  0.3087534    0.00000       Uiso       1.00
        C6          C  0.0000000  0.2924767  0.2889748    0.00000       Uiso       1.00
        C6          C  0.0000000  0.7075231  0.2889748    0.00000       Uiso       1.00
        C6          C  0.0000000  0.2924767  0.7110253    0.00000       Uiso       1.00
        C6          C  0.0000000  0.7075231  0.7110253    0.00000       Uiso       1.00
        N1          N  0.0000000  0.3322547  0.2994271    0.00000       Uiso       1.00
        N1          N  0.0000000  0.6677451  0.2994271    0.00000       Uiso       1.00
        N1          N  0.0000000  0.3322547  0.7005729    0.00000       Uiso       1.00
        N1          N  0.0000000  0.6677451  0.7005729    0.00000       Uiso       1.00
        C7          C  0.0000000  0.3705204  0.2864528    0.00000       Uiso       1.00
        C8          C  0.0000000  0.3784504  0.2557966    0.00000       Uiso       1.00
        C9          C  0.0000000  0.4049264  0.3058912    0.00000       Uiso       1.00
       C10          C  0.0000000  0.4201430  0.2452989    0.00000       Uiso       1.00
       C11          C  0.0000000  0.4463004  0.2950900    0.00000       Uiso       1.00
       C12          C  0.0000000  0.4559899  0.2644215    0.00000       Uiso       1.00
        C7          C  0.0000000  0.6294794  0.2864528    0.00000       Uiso       1.00
        C8          C  0.0000000  0.6215495  0.2557966    0.00000       Uiso       1.00
        C9          C  0.0000000  0.5950734  0.3058912    0.00000       Uiso       1.00
       C10          C  0.0000000  0.5798568  0.2452989    0.00000       Uiso       1.00
       C11          C  0.0000000  0.5536994  0.2950900    0.00000       Uiso       1.00
       C12          C  0.0000000  0.5440099  0.2644215    0.00000       Uiso       1.00
        C7          C  0.0000000  0.3705204  0.7135472    0.00000       Uiso       1.00
        C8          C  0.0000000  0.3784504  0.7442034    0.00000       Uiso       1.00
        C9          C  0.0000000  0.4049264  0.6941088    0.00000       Uiso       1.00
       C10          C  0.0000000  0.4201430  0.7547012    0.00000       Uiso       1.00
       C11          C  0.0000000  0.4463004  0.7049100    0.00000       Uiso       1.00
       C12          C  0.0000000  0.4559899  0.7355785    0.00000       Uiso       1.00
        C7          C  0.0000000  0.6294794  0.7135472    0.00000       Uiso       1.00
        C8          C  0.0000000  0.6215495  0.7442034    0.00000       Uiso       1.00
        C9          C  0.0000000  0.5950734  0.6941088    0.00000       Uiso       1.00
       C10          C  0.0000000  0.5798568  0.7547012    0.00000       Uiso       1.00
       C11          C  0.0000000  0.5536994  0.7049100    0.00000       Uiso       1.00
       C12          C  0.0000000  0.5440099  0.7355785    0.00000       Uiso       1.00
      C109          C  0.6234106  0.4999999  0.0789115    0.00000       Uiso       1.00
      C110          C  0.6098501  0.4999999  0.1385872    0.00000       Uiso       1.00
      C109          C  0.3765890  0.4999999  0.0789115    0.00000       Uiso       1.00
      C110          C  0.3901495  0.4999999  0.1385872    0.00000       Uiso       1.00
      C109          C  0.3765890  0.4999999  0.9210886    0.00000       Uiso       1.00
      C110          C  0.3901495  0.4999999  0.8614128    0.00000       Uiso       1.00
      C109          C  0.6234106  0.4999999  0.9210886    0.00000       Uiso       1.00
      C110          C  0.6098501  0.4999999  0.8614128    0.00000       Uiso       1.00
      C109          C  0.0000000  0.1234108  0.5789115    0.00000       Uiso       1.00
      C110          C  0.0000000  0.1098503  0.6385872    0.00000       Uiso       1.00
      C109          C  0.0000000  0.8765890  0.5789115    0.00000       Uiso       1.00
      C110          C  0.0000000  0.8901495  0.6385872    0.00000       Uiso       1.00
      C109          C  0.0000000  0.1234108  0.4210885    0.00000       Uiso       1.00
      C110          C  0.0000000  0.1098503  0.3614129    0.00000       Uiso       1.00
      C109          C  0.0000000  0.8765890  0.4210885    0.00000       Uiso       1.00
      C110          C  0.0000000  0.8901495  0.3614129    0.00000       Uiso       1.00
       H69          H  0.3972350  0.4999999  0.0229875    0.00000       Uiso       1.00
       H69          H  0.6027647  0.4999999  0.0229875    0.00000       Uiso       1.00
       H69          H  0.6027647  0.4999999  0.9770126    0.00000       Uiso       1.00
       H69          H  0.3972350  0.4999999  0.9770126    0.00000       Uiso       1.00
       H69          H  0.0000000  0.8972350  0.5229875    0.00000       Uiso       1.00
       H69          H  0.0000000  0.1027648  0.5229875    0.00000       Uiso       1.00
       H69          H  0.0000000  0.8972350  0.4770125    0.00000       Uiso       1.00
       H69          H  0.0000000  0.1027648  0.4770125    0.00000       Uiso       1.00
        C1          C  0.5762994  0.4999999  0.1180537    0.00000       Uiso       1.00
        C2          C  0.4237002  0.4999999  0.1180537    0.00000       Uiso       1.00
        C3          C  0.4237002  0.4999999  0.8819463    0.00000       Uiso       1.00
        C4          C  0.5762994  0.4999999  0.8819463    0.00000       Uiso       1.00
        C5          C  0.0000000  0.0762997  0.6180537    0.00000       Uiso       1.00
        C6          C  0.0000000  0.9237001  0.6180537    0.00000       Uiso       1.00
        C7          C  0.0000000  0.0762997  0.3819463    0.00000       Uiso       1.00
        C8          C  0.0000000  0.9237001  0.3819463    0.00000       Uiso       1.00
        C9          C  0.4999998  0.4999999  0.0165254    0.00000       Uiso       1.00
       C10          C  0.4999998  0.4999999  0.9834747    0.00000       Uiso       1.00
       C11          C  0.0000000  0.0000000  0.5165254    0.00000       Uiso       1.00
       C12          C  0.0000000  0.0000000  0.4834746    0.00000       Uiso       1.00
      C134          C  0.4999998  0.4999999  0.0791569    0.00000       Uiso       1.00
      C134          C  0.4999998  0.4999999  0.9208431    0.00000       Uiso       1.00
      C134          C  0.0000000  0.0000000  0.5791569    0.00000       Uiso       1.00
      C134          C  0.0000000  0.0000000  0.4208431    0.00000       Uiso       1.00
       H82          H  0.4999998  0.4999999  0.1021208    0.00000       Uiso       1.00
       H82          H  0.4999998  0.4999999  0.8978792    0.00000       Uiso       1.00
       H82          H  0.0000000  0.0000000  0.6021209    0.00000       Uiso       1.00
       H82          H  0.0000000  0.0000000  0.3978792    0.00000       Uiso       1.00
       H24          H  0.0000000  0.2872697  0.2666345    0.00000       Uiso       1.00
       H25          H  0.0000000  0.4001146  0.3283271    0.00000       Uiso       1.00
       H26          H  0.0000000  0.4683477  0.3108514    0.00000       Uiso       1.00
       H27          H  0.0000000  0.4242461  0.2228406    0.00000       Uiso       1.00
       H28          H  0.0000000  0.6457865  0.2409679    0.00000       Uiso       1.00
       H24          H  0.0000000  0.7127301  0.2666345    0.00000       Uiso       1.00
       H25          H  0.0000000  0.5998853  0.3283271    0.00000       Uiso       1.00
       H26          H  0.0000000  0.5316521  0.3108514    0.00000       Uiso       1.00
       H27          H  0.0000000  0.5757537  0.2228406    0.00000       Uiso       1.00
       H28          H  0.0000000  0.3542134  0.2409679    0.00000       Uiso       1.00
       H24          H  0.0000000  0.2872697  0.7333656    0.00000       Uiso       1.00
       H25          H  0.0000000  0.4001146  0.6716729    0.00000       Uiso       1.00
       H26          H  0.0000000  0.4683477  0.6891486    0.00000       Uiso       1.00
       H27          H  0.0000000  0.4242461  0.7771594    0.00000       Uiso       1.00
       H28          H  0.0000000  0.6457865  0.7590322    0.00000       Uiso       1.00
       H24          H  0.0000000  0.7127301  0.7333656    0.00000       Uiso       1.00
       H25          H  0.0000000  0.5998853  0.6716729    0.00000       Uiso       1.00
       H26          H  0.0000000  0.5316521  0.6891486    0.00000       Uiso       1.00
       H27          H  0.0000000  0.5757537  0.7771594    0.00000       Uiso       1.00
       H28          H  0.0000000  0.3542134  0.7590322    0.00000       Uiso       1.00
       H44          H  0.7872694  0.4999999  0.2333656    0.00000       Uiso       1.00
       H45          H  0.9001143  0.4999999  0.1716730    0.00000       Uiso       1.00
       H46          H  0.9683474  0.4999999  0.1891487    0.00000       Uiso       1.00
       H47          H  0.9242459  0.4999999  0.2771595    0.00000       Uiso       1.00
       H44          H  0.2127302  0.4999999  0.2333656    0.00000       Uiso       1.00
       H45          H  0.0998853  0.4999999  0.1716730    0.00000       Uiso       1.00
       H46          H  0.0316522  0.4999999  0.1891487    0.00000       Uiso       1.00
       H47          H  0.0757537  0.4999999  0.2771595    0.00000       Uiso       1.00
       H44          H  0.2127302  0.4999999  0.7666344    0.00000       Uiso       1.00
       H45          H  0.0998853  0.4999999  0.8283271    0.00000       Uiso       1.00
       H46          H  0.0316522  0.4999999  0.8108513    0.00000       Uiso       1.00
       H47          H  0.0757537  0.4999999  0.7228406    0.00000       Uiso       1.00
       H44          H  0.7872694  0.4999999  0.7666344    0.00000       Uiso       1.00
       H45          H  0.9001143  0.4999999  0.8283271    0.00000       Uiso       1.00
       H46          H  0.9683474  0.4999999  0.8108513    0.00000       Uiso       1.00
       H47          H  0.9242459  0.4999999  0.7228406    0.00000       Uiso       1.00
       H58          H  0.8542130  0.4999999  0.2590323    0.00000       Uiso       1.00
       H58          H  0.1457866  0.4999999  0.2590323    0.00000       Uiso       1.00
       H58          H  0.1457866  0.4999999  0.7409678    0.00000       Uiso       1.00
       H58          H  0.8542130  0.4999999  0.7409678    0.00000       Uiso       1.00
      C118          C  0.7924764  0.4999999  0.2110253    0.00000       Uiso       1.00
      C118          C  0.2075232  0.4999999  0.2110253    0.00000       Uiso       1.00
      C118          C  0.2075232  0.4999999  0.7889747    0.00000       Uiso       1.00
      C118          C  0.7924764  0.4999999  0.7889747    0.00000       Uiso       1.00
        N8          N  0.8322544  0.4999999  0.2005730    0.00000       Uiso       1.00
        N8          N  0.1677452  0.4999999  0.2005730    0.00000       Uiso       1.00
        N8          N  0.1677452  0.4999999  0.7994270    0.00000       Uiso       1.00
        N8          N  0.8322544  0.4999999  0.7994270    0.00000       Uiso       1.00
      C119          C  0.8705202  0.4999999  0.2135473    0.00000       Uiso       1.00
      C120          C  0.8784500  0.4999999  0.2442036    0.00000       Uiso       1.00
      C121          C  0.9049261  0.4999999  0.1941089    0.00000       Uiso       1.00
      C122          C  0.9201427  0.4999999  0.2547013    0.00000       Uiso       1.00
      C123          C  0.9463001  0.4999999  0.2049102    0.00000       Uiso       1.00
      C124          C  0.9559896  0.4999999  0.2355786    0.00000       Uiso       1.00
      C119          C  0.1294795  0.4999999  0.2135473    0.00000       Uiso       1.00
      C120          C  0.1215496  0.4999999  0.2442036    0.00000       Uiso       1.00
      C121          C  0.0950735  0.4999999  0.1941089    0.00000       Uiso       1.00
      C122          C  0.0798569  0.4999999  0.2547013    0.00000       Uiso       1.00
      C123          C  0.0536995  0.4999999  0.2049102    0.00000       Uiso       1.00
      C124          C  0.0440100  0.4999999  0.2355786    0.00000       Uiso       1.00
      C119          C  0.1294795  0.4999999  0.7864527    0.00000       Uiso       1.00
      C120          C  0.1215496  0.4999999  0.7557964    0.00000       Uiso       1.00
      C121          C  0.0950735  0.4999999  0.8058911    0.00000       Uiso       1.00
      C122          C  0.0798569  0.4999999  0.7452988    0.00000       Uiso       1.00
      C123          C  0.0536995  0.4999999  0.7950899    0.00000       Uiso       1.00
      C124          C  0.0440100  0.4999999  0.7644215    0.00000       Uiso       1.00
      C119          C  0.8705202  0.4999999  0.7864527    0.00000       Uiso       1.00
      C120          C  0.8784500  0.4999999  0.7557964    0.00000       Uiso       1.00
      C121          C  0.9049261  0.4999999  0.8058911    0.00000       Uiso       1.00
      C122          C  0.9201427  0.4999999  0.7452988    0.00000       Uiso       1.00
      C123          C  0.9463001  0.4999999  0.7950899    0.00000       Uiso       1.00
      C124          C  0.9559896  0.4999999  0.7644215    0.00000       Uiso       1.00
      C130          C  0.0000000  0.4999999  0.2500001    0.00000       Uiso       1.00
      C130          C  0.0000000  0.4999999  0.7499999    0.00000       Uiso       1.00
