data_120
_audit_creation_date              0000-00-00
_audit_creation_method            'LanYouShi'
_symmetry_space_group_name_H-M    'P1'
_cell_length_a                    28.1980000
_cell_length_b                    28.1980000
_cell_length_c                    39.2561989
_cell_angle_alpha                 90.0000000
_cell_angle_beta                  90.0000000
_cell_angle_gamma                 90.0000000
loop_
_atom_site_label
_atom_site_type_symbol
_atom_site_fract_x
_atom_site_fract_y
_atom_site_fract_z
_atom_site_U_iso_or_equiv
_atom_site_adp_type
_atom_site_occupancy
        H1          H  0.2132040  0.5000007  0.1034526    0.00000       Uiso       1.00
        H2          H  0.7867975  0.5000007  0.1034526    0.00000       Uiso       1.00
        H3          H  0.5000007  0.2132040  0.6034527    0.00000       Uiso       1.00
        H4          H  0.5000007  0.7867975  0.6034527    0.00000       Uiso       1.00
        H5          H  0.7867975  0.5000007  0.8965477    0.00000       Uiso       1.00
        H6          H  0.2132040  0.5000007  0.8965477    0.00000       Uiso       1.00
        H7          H  0.5000007  0.2132040  0.3965476    0.00000       Uiso       1.00
        H8          H  0.5000007  0.7867975  0.3965476    0.00000       Uiso       1.00
        H9          H  0.0468258  0.5000007  0.1491923    0.00000       Uiso       1.00
       H10          H  0.9531757  0.5000007  0.1491923    0.00000       Uiso       1.00
       H11          H  0.5000007  0.0468258  0.6491925    0.00000       Uiso       1.00
       H12          H  0.5000007  0.9531757  0.6491925    0.00000       Uiso       1.00
       H13          H  0.9531757  0.5000007  0.8508080    0.00000       Uiso       1.00
       H14          H  0.0468258  0.5000007  0.8508080    0.00000       Uiso       1.00
       H15          H  0.5000007  0.0468258  0.3508078    0.00000       Uiso       1.00
       H16          H  0.5000007  0.9531757  0.3508078    0.00000       Uiso       1.00
       H17          H  0.1131654  0.5000007  0.1889589    0.00000       Uiso       1.00
       H18          H  0.8868362  0.5000007  0.1889589    0.00000       Uiso       1.00
       H19          H  0.5000007  0.1131654  0.6889591    0.00000       Uiso       1.00
       H20          H  0.5000007  0.8868362  0.6889591    0.00000       Uiso       1.00
       H21          H  0.8868362  0.5000007  0.8110414    0.00000       Uiso       1.00
       H22          H  0.1131654  0.5000007  0.8110414    0.00000       Uiso       1.00
       H23          H  0.5000007  0.1131654  0.3110413    0.00000       Uiso       1.00
       H24          H  0.5000007  0.8868362  0.3110413    0.00000       Uiso       1.00
        C1          C  0.0463325  0.5000007  0.0756738    0.00000       Uiso       1.00
        C2          C  0.9536690  0.5000007  0.0756738    0.00000       Uiso       1.00
        C3          C  0.5000007  0.0463325  0.5756739    0.00000       Uiso       1.00
        C4          C  0.5000007  0.9536690  0.5756739    0.00000       Uiso       1.00
        C5          C  0.9536690  0.5000007  0.9243265    0.00000       Uiso       1.00
        C6          C  0.0463325  0.5000007  0.9243265    0.00000       Uiso       1.00
        C7          C  0.5000007  0.0463325  0.4243264    0.00000       Uiso       1.00
        C8          C  0.5000007  0.9536690  0.4243264    0.00000       Uiso       1.00
       H25          H  0.1483175  0.5000007  0.0633999    0.00000       Uiso       1.00
       H26          H  0.8516840  0.5000007  0.0633999    0.00000       Uiso       1.00
       H27          H  0.5000007  0.1483175  0.5634001    0.00000       Uiso       1.00
       H28          H  0.5000007  0.8516840  0.5634001    0.00000       Uiso       1.00
       H29          H  0.8516840  0.5000007  0.9366004    0.00000       Uiso       1.00
       H30          H  0.1483175  0.5000007  0.9366004    0.00000       Uiso       1.00
       H31          H  0.5000007  0.1483175  0.4366003    0.00000       Uiso       1.00
       H32          H  0.5000007  0.8516840  0.4366003    0.00000       Uiso       1.00
        C9          C  0.9566156  0.5000007  0.0385954    0.00000       Uiso       1.00
       C10          C  0.0433860  0.5000007  0.0385954    0.00000       Uiso       1.00
       C11          C  0.5000007  0.9566156  0.5385956    0.00000       Uiso       1.00
       C12          C  0.5000007  0.0433860  0.5385956    0.00000       Uiso       1.00
       C13          C  0.0433860  0.5000007  0.9614050    0.00000       Uiso       1.00
       C14          C  0.9566156  0.5000007  0.9614050    0.00000       Uiso       1.00
       C15          C  0.5000007  0.9566156  0.4614048    0.00000       Uiso       1.00
       C16          C  0.5000007  0.0433860  0.4614048    0.00000       Uiso       1.00
       C17          C  0.9166663  0.5000007  0.0175984    0.00000       Uiso       1.00
       C18          C  0.0833352  0.5000007  0.0175984    0.00000       Uiso       1.00
       C19          C  0.5000007  0.9166663  0.5175986    0.00000       Uiso       1.00
       C20          C  0.5000007  0.0833352  0.5175986    0.00000       Uiso       1.00
       C21          C  0.0833352  0.5000007  0.9824019    0.00000       Uiso       1.00
       C22          C  0.9166663  0.5000007  0.9824019    0.00000       Uiso       1.00
       C23          C  0.5000007  0.9166663  0.4824018    0.00000       Uiso       1.00
       C24          C  0.5000007  0.0833352  0.4824018    0.00000       Uiso       1.00
       C25          C  0.9126944  0.5000007  0.0997348    0.00000       Uiso       1.00
       C26          C  0.0873071  0.5000007  0.0997348    0.00000       Uiso       1.00
       C27          C  0.5000007  0.9126944  0.5997350    0.00000       Uiso       1.00
       C28          C  0.5000007  0.0873071  0.5997350    0.00000       Uiso       1.00
       C29          C  0.0873071  0.5000007  0.9002656    0.00000       Uiso       1.00
       C30          C  0.9126944  0.5000007  0.9002656    0.00000       Uiso       1.00
       C31          C  0.5000007  0.9126944  0.4002654    0.00000       Uiso       1.00
       C32          C  0.5000007  0.0873071  0.4002654    0.00000       Uiso       1.00
       C33          C  0.8245707  0.5000007  0.1138033    0.00000       Uiso       1.00
       C34          C  0.1754308  0.5000007  0.1138033    0.00000       Uiso       1.00
       C35          C  0.5000007  0.8245707  0.6138034    0.00000       Uiso       1.00
       C36          C  0.5000007  0.1754308  0.6138034    0.00000       Uiso       1.00
       C37          C  0.1754308  0.5000007  0.8861970    0.00000       Uiso       1.00
       C38          C  0.8245707  0.5000007  0.8861970    0.00000       Uiso       1.00
       C39          C  0.5000007  0.8245707  0.3861969    0.00000       Uiso       1.00
       C40          C  0.5000007  0.1754308  0.3861969    0.00000       Uiso       1.00
       C41          C  0.8317108  0.5000007  0.1491176    0.00000       Uiso       1.00
       C42          C  0.1682907  0.5000007  0.1491176    0.00000       Uiso       1.00
       C43          C  0.5000007  0.8317108  0.6491178    0.00000       Uiso       1.00
       C44          C  0.5000007  0.1682907  0.6491178    0.00000       Uiso       1.00
       C45          C  0.1682907  0.5000007  0.8508827    0.00000       Uiso       1.00
       C46          C  0.8317108  0.5000007  0.8508827    0.00000       Uiso       1.00
       C47          C  0.5000007  0.8317108  0.3508825    0.00000       Uiso       1.00
       C48          C  0.5000007  0.1682907  0.3508825    0.00000       Uiso       1.00
       C49          C  0.7903884  0.5000007  0.1690347    0.00000       Uiso       1.00
       C50          C  0.2096131  0.5000007  0.1690347    0.00000       Uiso       1.00
       C51          C  0.5000007  0.7903884  0.6690349    0.00000       Uiso       1.00
       C52          C  0.5000007  0.2096131  0.6690349    0.00000       Uiso       1.00
       C53          C  0.2096131  0.5000007  0.8309656    0.00000       Uiso       1.00
       C54          C  0.7903884  0.5000007  0.8309656    0.00000       Uiso       1.00
       C55          C  0.5000007  0.7903884  0.3309654    0.00000       Uiso       1.00
       C56          C  0.5000007  0.2096131  0.3309654    0.00000       Uiso       1.00
        N1          N  0.7775846  0.5000007  0.2024617    0.00000       Uiso       1.00
        N2          N  0.2224170  0.5000007  0.2024617    0.00000       Uiso       1.00
        N3          N  0.5000007  0.7775846  0.7024618    0.00000       Uiso       1.00
        N4          N  0.5000007  0.2224170  0.7024618    0.00000       Uiso       1.00
        N5          N  0.2224170  0.5000007  0.7975386    0.00000       Uiso       1.00
        N6          N  0.7775846  0.5000007  0.7975386    0.00000       Uiso       1.00
        N7          N  0.5000007  0.7775846  0.2975385    0.00000       Uiso       1.00
        N8          N  0.5000007  0.2224170  0.2975385    0.00000       Uiso       1.00
       C57          C  0.5000007  0.2683350  0.2856953    0.00000       Uiso       1.00
       C58          C  0.5000007  0.7316664  0.2856953    0.00000       Uiso       1.00
       C59          C  0.7316664  0.5000007  0.7856955    0.00000       Uiso       1.00
       C60          C  0.2683350  0.5000007  0.7856955    0.00000       Uiso       1.00
       C61          C  0.5000007  0.2683350  0.7143050    0.00000       Uiso       1.00
       C62          C  0.5000007  0.7316664  0.7143050    0.00000       Uiso       1.00
       C63          C  0.2683350  0.5000007  0.2143049    0.00000       Uiso       1.00
       C64          C  0.7316664  0.5000007  0.2143049    0.00000       Uiso       1.00
       C65          C  0.5000007  0.3089774  0.3076655    0.00000       Uiso       1.00
       C66          C  0.5000007  0.6910241  0.3076655    0.00000       Uiso       1.00
       C67          C  0.6910241  0.5000007  0.8076656    0.00000       Uiso       1.00
       C68          C  0.3089774  0.5000007  0.8076656    0.00000       Uiso       1.00
       C69          C  0.5000007  0.3089774  0.6923348    0.00000       Uiso       1.00
       C70          C  0.5000007  0.6910241  0.6923348    0.00000       Uiso       1.00
       C71          C  0.3089774  0.5000007  0.1923347    0.00000       Uiso       1.00
       C72          C  0.6910241  0.5000007  0.1923347    0.00000       Uiso       1.00
       C73          C  0.5000007  0.3551011  0.2936237    0.00000       Uiso       1.00
       C74          C  0.5000007  0.6449004  0.2936237    0.00000       Uiso       1.00
       C75          C  0.6449004  0.5000007  0.7936239    0.00000       Uiso       1.00
       C76          C  0.3551011  0.5000007  0.7936239    0.00000       Uiso       1.00
       C77          C  0.5000007  0.3551011  0.7063766    0.00000       Uiso       1.00
       C78          C  0.5000007  0.6449004  0.7063766    0.00000       Uiso       1.00
       C79          C  0.3551011  0.5000007  0.2063764    0.00000       Uiso       1.00
       C80          C  0.6449004  0.5000007  0.2063764    0.00000       Uiso       1.00
       C81          C  0.5000007  0.3617062  0.2574305    0.00000       Uiso       1.00
       C82          C  0.5000007  0.6382954  0.2574305    0.00000       Uiso       1.00
       C83          C  0.6382954  0.5000007  0.7574307    0.00000       Uiso       1.00
       C84          C  0.3617062  0.5000007  0.7574307    0.00000       Uiso       1.00
       C85          C  0.5000007  0.3617062  0.7425698    0.00000       Uiso       1.00
       C86          C  0.5000007  0.6382954  0.7425698    0.00000       Uiso       1.00
       C87          C  0.3617062  0.5000007  0.2425697    0.00000       Uiso       1.00
       C88          C  0.6382954  0.5000007  0.2425697    0.00000       Uiso       1.00
       C89          C  0.5000007  0.3941674  0.3156211    0.00000       Uiso       1.00
       C90          C  0.5000007  0.6058341  0.3156211    0.00000       Uiso       1.00
       C91          C  0.6058341  0.5000007  0.8156213    0.00000       Uiso       1.00
       C92          C  0.3941674  0.5000007  0.8156213    0.00000       Uiso       1.00
       C93          C  0.5000007  0.3941674  0.6843792    0.00000       Uiso       1.00
       C94          C  0.5000007  0.6058341  0.6843792    0.00000       Uiso       1.00
       C95          C  0.3941674  0.5000007  0.1843790    0.00000       Uiso       1.00
       C96          C  0.6058341  0.5000007  0.1843790    0.00000       Uiso       1.00
       C97          C  0.5000007  0.4091070  0.2450478    0.00000       Uiso       1.00
       C98          C  0.5000007  0.5908945  0.2450478    0.00000       Uiso       1.00
       C99          C  0.5908945  0.5000007  0.7450480    0.00000       Uiso       1.00
      C100          C  0.4091070  0.5000007  0.7450480    0.00000       Uiso       1.00
      C101          C  0.5000007  0.4091070  0.7549525    0.00000       Uiso       1.00
      C102          C  0.5000007  0.5908945  0.7549525    0.00000       Uiso       1.00
      C103          C  0.4091070  0.5000007  0.2549524    0.00000       Uiso       1.00
      C104          C  0.5908945  0.5000007  0.2549524    0.00000       Uiso       1.00
      C105          C  0.5000007  0.4400329  0.3020797    0.00000       Uiso       1.00
      C106          C  0.5000007  0.5599687  0.3020797    0.00000       Uiso       1.00
      C107          C  0.5599687  0.5000007  0.8020799    0.00000       Uiso       1.00
      C108          C  0.4400329  0.5000007  0.8020799    0.00000       Uiso       1.00
      C109          C  0.5000007  0.4400329  0.6979206    0.00000       Uiso       1.00
      C110          C  0.5000007  0.5599687  0.6979206    0.00000       Uiso       1.00
      C111          C  0.4400329  0.5000007  0.1979204    0.00000       Uiso       1.00
      C112          C  0.5599687  0.5000007  0.1979204    0.00000       Uiso       1.00
      C113          C  0.5000007  0.4501754  0.2666755    0.00000       Uiso       1.00
      C114          C  0.5000007  0.5498261  0.2666755    0.00000       Uiso       1.00
      C115          C  0.5498261  0.5000007  0.7666757    0.00000       Uiso       1.00
      C116          C  0.4501754  0.5000007  0.7666757    0.00000       Uiso       1.00
      C117          C  0.5000007  0.4501754  0.7333248    0.00000       Uiso       1.00
      C118          C  0.5000007  0.5498261  0.7333248    0.00000       Uiso       1.00
      C119          C  0.4501754  0.5000007  0.2333247    0.00000       Uiso       1.00
      C120          C  0.5498261  0.5000007  0.2333247    0.00000       Uiso       1.00
      C121          C  0.1367981  0.5000007  0.0912361    0.00000       Uiso       1.00
      C122          C  0.8632035  0.5000007  0.0912361    0.00000       Uiso       1.00
      C123          C  0.5000007  0.1367981  0.5912362    0.00000       Uiso       1.00
      C124          C  0.5000007  0.8632035  0.5912362    0.00000       Uiso       1.00
      C125          C  0.8632035  0.5000007  0.9087642    0.00000       Uiso       1.00
      C126          C  0.1367981  0.5000007  0.9087642    0.00000       Uiso       1.00
      C127          C  0.5000007  0.1367981  0.4087641    0.00000       Uiso       1.00
      C128          C  0.5000007  0.8632035  0.4087641    0.00000       Uiso       1.00
      C129          C  0.1211713  0.5000007  0.1604940    0.00000       Uiso       1.00
      C130          C  0.8788303  0.5000007  0.1604940    0.00000       Uiso       1.00
      C131          C  0.5000007  0.1211713  0.6604941    0.00000       Uiso       1.00
      C132          C  0.5000007  0.8788303  0.6604941    0.00000       Uiso       1.00
      C133          C  0.8788303  0.5000007  0.8395064    0.00000       Uiso       1.00
      C134          C  0.1211713  0.5000007  0.8395064    0.00000       Uiso       1.00
      C135          C  0.5000007  0.1211713  0.3395062    0.00000       Uiso       1.00
      C136          C  0.5000007  0.8788303  0.3395062    0.00000       Uiso       1.00
       H33          H  0.8796779  0.5000007  0.0293205    0.00000       Uiso       1.00
       H34          H  0.1203236  0.5000007  0.0293205    0.00000       Uiso       1.00
       H35          H  0.5000007  0.8796779  0.5293207    0.00000       Uiso       1.00
       H36          H  0.5000007  0.1203236  0.5293207    0.00000       Uiso       1.00
       H37          H  0.1203236  0.5000007  0.9706799    0.00000       Uiso       1.00
       H38          H  0.8796779  0.5000007  0.9706799    0.00000       Uiso       1.00
       H39          H  0.5000007  0.8796779  0.4706797    0.00000       Uiso       1.00
       H40          H  0.5000007  0.1203236  0.4706797    0.00000       Uiso       1.00
      C137          C  0.0833019  0.5000007  0.1366693    0.00000       Uiso       1.00
      C138          C  0.9166996  0.5000007  0.1366693    0.00000       Uiso       1.00
      C139          C  0.5000007  0.0833019  0.6366694    0.00000       Uiso       1.00
      C140          C  0.5000007  0.9166996  0.6366694    0.00000       Uiso       1.00
      C141          C  0.9166996  0.5000007  0.8633310    0.00000       Uiso       1.00
      C142          C  0.0833019  0.5000007  0.8633310    0.00000       Uiso       1.00
      C143          C  0.5000007  0.0833019  0.3633309    0.00000       Uiso       1.00
      C144          C  0.5000007  0.9166996  0.3633309    0.00000       Uiso       1.00
      C145          C  0.0000000  0.5000007  0.0190083    0.00000       Uiso       1.00
      C146          C  0.5000007  0.0000000  0.5190085    0.00000       Uiso       1.00
      C147          C  0.0000000  0.5000007  0.9809920    0.00000       Uiso       1.00
      C148          C  0.5000007  0.0000000  0.4809918    0.00000       Uiso       1.00
      C149          C  0.0000000  0.5000007  0.0901045    0.00000       Uiso       1.00
      C150          C  0.5000007  0.0000000  0.5901046    0.00000       Uiso       1.00
      C151          C  0.0000000  0.5000007  0.9098958    0.00000       Uiso       1.00
      C152          C  0.5000007  0.0000000  0.4098957    0.00000       Uiso       1.00
       H41          H -0.0046175  0.5000007  0.1189544    0.00000       Uiso       1.00
       H42          H  0.5000007 -0.0046175  0.6189546    0.00000       Uiso       1.00
       H43          H  0.0046175  0.5000007  0.8810459    0.00000       Uiso       1.00
       H44          H  0.5000007 -0.0046175  0.3810457    0.00000       Uiso       1.00
      C153          C  0.5000007  0.2755581  0.2496380    0.00000       Uiso       1.00
      C154          C  0.5000007  0.7244434  0.2496380    0.00000       Uiso       1.00
      C155          C  0.7244434  0.5000007  0.7496382    0.00000       Uiso       1.00
      C156          C  0.2755581  0.5000007  0.7496382    0.00000       Uiso       1.00
      C157          C  0.5000007  0.2755581  0.7503623    0.00000       Uiso       1.00
      C158          C  0.5000007  0.7244434  0.7503623    0.00000       Uiso       1.00
      C159          C  0.2755581  0.5000007  0.2503622    0.00000       Uiso       1.00
      C160          C  0.7244434  0.5000007  0.2503622    0.00000       Uiso       1.00
       H45          H  0.5000007  0.3884760  0.3443719    0.00000       Uiso       1.00
       H46          H  0.5000007  0.6115255  0.3443719    0.00000       Uiso       1.00
       H47          H  0.6115255  0.5000007  0.8443721    0.00000       Uiso       1.00
       H48          H  0.3884760  0.5000007  0.8443721    0.00000       Uiso       1.00
       H49          H  0.5000007  0.3884760  0.6556284    0.00000       Uiso       1.00
       H50          H  0.5000007  0.6115255  0.6556284    0.00000       Uiso       1.00
       H51          H  0.3884760  0.5000007  0.1556282    0.00000       Uiso       1.00
       H52          H  0.6115255  0.5000007  0.1556282    0.00000       Uiso       1.00
       H53          H  0.5000007  0.4720397  0.3198209    0.00000       Uiso       1.00
       H54          H  0.5000007  0.5279619  0.3198209    0.00000       Uiso       1.00
       H55          H  0.5279619  0.5000007  0.8198211    0.00000       Uiso       1.00
       H56          H  0.4720397  0.5000007  0.8198211    0.00000       Uiso       1.00
       H57          H  0.5000007  0.4720397  0.6801794    0.00000       Uiso       1.00
       H58          H  0.5000007  0.5279619  0.6801794    0.00000       Uiso       1.00
       H59          H  0.4720397  0.5000007  0.1801793    0.00000       Uiso       1.00
       H60          H  0.5279619  0.5000007  0.1801793    0.00000       Uiso       1.00
       H61          H  0.5000007  0.4161375  0.2164503    0.00000       Uiso       1.00
       H62          H  0.5000007  0.5838640  0.2164503    0.00000       Uiso       1.00
       H63          H  0.5838640  0.5000007  0.7164505    0.00000       Uiso       1.00
       H64          H  0.4161375  0.5000007  0.7164505    0.00000       Uiso       1.00
       H65          H  0.5000007  0.4161375  0.7835501    0.00000       Uiso       1.00
       H66          H  0.5000007  0.5838640  0.7835501    0.00000       Uiso       1.00
       H67          H  0.4161375  0.5000007  0.2835499    0.00000       Uiso       1.00
       H68          H  0.5838640  0.5000007  0.2835499    0.00000       Uiso       1.00
      C161          C  0.5000007  0.6782219  0.2348594    0.00000       Uiso       1.00
      C162          C  0.5000007  0.3217796  0.2348594    0.00000       Uiso       1.00
      C163          C  0.3217796  0.5000007  0.7348596    0.00000       Uiso       1.00
      C164          C  0.6782219  0.5000007  0.7348596    0.00000       Uiso       1.00
      C165          C  0.5000007  0.6782219  0.7651410    0.00000       Uiso       1.00
      C166          C  0.5000007  0.3217796  0.7651410    0.00000       Uiso       1.00
      C167          C  0.6782219  0.5000007  0.2651408    0.00000       Uiso       1.00
      C168          C  0.3217796  0.5000007  0.2651408    0.00000       Uiso       1.00
      C169          C  0.5000007  0.5000007  0.2500001    0.00000       Uiso       1.00
      C170          C  0.5000007  0.5000007  0.7500002    0.00000       Uiso       1.00
       H69          H  0.7540944  0.5000007  0.1562416    0.00000       Uiso       1.00
       H70          H  0.2459072  0.5000007  0.1562416    0.00000       Uiso       1.00
       H71          H  0.5000007  0.7540944  0.6562418    0.00000       Uiso       1.00
       H72          H  0.5000007  0.2459072  0.6562418    0.00000       Uiso       1.00
       H73          H  0.2459072  0.5000007  0.8437586    0.00000       Uiso       1.00
       H74          H  0.7540944  0.5000007  0.8437586    0.00000       Uiso       1.00
       H75          H  0.5000007  0.7540944  0.3437585    0.00000       Uiso       1.00
       H76          H  0.5000007  0.2459072  0.3437585    0.00000       Uiso       1.00
       H77          H  0.5000007  0.3040758  0.3364912    0.00000       Uiso       1.00
       H78          H  0.5000007  0.2437821  0.2316841    0.00000       Uiso       1.00
       H79          H  0.5000007  0.6724534  0.2061165    0.00000       Uiso       1.00
       H80          H  0.5000007  0.6959258  0.3364912    0.00000       Uiso       1.00
       H81          H  0.5000007  0.7562195  0.2316841    0.00000       Uiso       1.00
       H82          H  0.5000007  0.3275481  0.2061165    0.00000       Uiso       1.00
       H83          H  0.6959258  0.5000007  0.8364913    0.00000       Uiso       1.00
       H84          H  0.7562195  0.5000007  0.7316843    0.00000       Uiso       1.00
       H85          H  0.3275481  0.5000007  0.7061167    0.00000       Uiso       1.00
       H86          H  0.3040758  0.5000007  0.8364913    0.00000       Uiso       1.00
       H87          H  0.2437821  0.5000007  0.7316843    0.00000       Uiso       1.00
       H88          H  0.6724534  0.5000007  0.7061167    0.00000       Uiso       1.00
       H89          H  0.5000007  0.3040758  0.6635091    0.00000       Uiso       1.00
       H90          H  0.5000007  0.2437821  0.7683162    0.00000       Uiso       1.00
       H91          H  0.5000007  0.6724534  0.7938839    0.00000       Uiso       1.00
       H92          H  0.5000007  0.6959258  0.6635091    0.00000       Uiso       1.00
       H93          H  0.5000007  0.7562195  0.7683162    0.00000       Uiso       1.00
       H94          H  0.5000007  0.3275481  0.7938839    0.00000       Uiso       1.00
       H95          H  0.3040758  0.5000007  0.1635089    0.00000       Uiso       1.00
       H96          H  0.2437821  0.5000007  0.2683160    0.00000       Uiso       1.00
       H97          H  0.6724534  0.5000007  0.2938837    0.00000       Uiso       1.00
       H98          H  0.6959258  0.5000007  0.1635089    0.00000       Uiso       1.00
       H99          H  0.7562195  0.5000007  0.2683160    0.00000       Uiso       1.00
      H100          H  0.3275481  0.5000007  0.2938837    0.00000       Uiso       1.00
