data_34
_audit_creation_date              0000-00-00
_audit_creation_method            'LanYouShi'
_symmetry_space_group_name_H-M    'P1'
_cell_length_a                    38.0379982
_cell_length_b                    32.1969986
_cell_length_c                    24.4521008
_cell_angle_alpha                 76.3420029
_cell_angle_beta                  114.8926010
_cell_angle_gamma                 119.9863968
loop_
_atom_site_label
_atom_site_type_symbol
_atom_site_fract_x
_atom_site_fract_y
_atom_site_fract_z
_atom_site_U_iso_or_equiv
_atom_site_adp_type
_atom_site_occupancy
        C1          C  0.6000257  0.5688216  0.4207511    0.00000       Uiso       1.00
        C2          C  0.5835668  0.5197468  0.4357307    0.00000       Uiso       1.00
        C3          C  0.5501830  0.4971824  0.4589528    0.00000       Uiso       1.00
        C4          C  0.5825328  0.5950125  0.4291470    0.00000       Uiso       1.00
        C5          C  0.5491481  0.5725108  0.4523637    0.00000       Uiso       1.00
        C6          C  0.5308841  0.5225571  0.4658548    0.00000       Uiso       1.00
        H1          H  0.4625874  0.4532730  0.3932352    0.00000       Uiso       1.00
        H2          H  0.4615002  0.5324029  0.3863136    0.00000       Uiso       1.00
        H3          H  0.5954946  0.6350446  0.4170274    0.00000       Uiso       1.00
        H4          H  0.5973799  0.4978133  0.4290313    0.00000       Uiso       1.00
        C7          C  0.4024686  0.3523497  0.4577908    0.00000       Uiso       1.00
        C8          C  0.4195045  0.3831739  0.4146915    0.00000       Uiso       1.00
        C9          C  0.4521189  0.4300724  0.4289623    0.00000       Uiso       1.00
       C10          C  0.4186057  0.3690388  0.5154628    0.00000       Uiso       1.00
       C11          C  0.4512194  0.4159255  0.5298176    0.00000       Uiso       1.00
       C12          C  0.4700720  0.4472619  0.4876416    0.00000       Uiso       1.00
        H5          H  0.5401633  0.4597870  0.4728090    0.00000       Uiso       1.00
        H6          H  0.5392184  0.4449261  0.5787541    0.00000       Uiso       1.00
        H7          H  0.4051590  0.3443431  0.5512120    0.00000       Uiso       1.00
        H8          H  0.4067978  0.3701155  0.3674768    0.00000       Uiso       1.00
       C13          C  0.3998017  0.5464672  0.4408110    0.00000       Uiso       1.00
       C14          C  0.4163554  0.5328317  0.5011355    0.00000       Uiso       1.00
       C15          C  0.4497932  0.5197342  0.5207372    0.00000       Uiso       1.00
       C16          C  0.4172542  0.5469669  0.4003643    0.00000       Uiso       1.00
       C17          C  0.4506927  0.5338811  0.4198820    0.00000       Uiso       1.00
       C18          C  0.4690509  0.5215867  0.4811403    0.00000       Uiso       1.00
        H9          H  0.5373642  0.5798874  0.5669488    0.00000       Uiso       1.00
       H10          H  0.5383092  0.5947483  0.4610037    0.00000       Uiso       1.00
       H11          H  0.4042150  0.5581089  0.3510327    0.00000       Uiso       1.00
       H12          H  0.4025762  0.5323365  0.5347680    0.00000       Uiso       1.00
       C19          C  0.5977076  0.5323658  0.6806499    0.00000       Uiso       1.00
       C20          C  0.5805768  0.5642517  0.6484451    0.00000       Uiso       1.00
       C21          C  0.5479084  0.5530152  0.5913504    0.00000       Uiso       1.00
       C22          C  0.5816109  0.4889861  0.6550287    0.00000       Uiso       1.00
       C23          C  0.5489433  0.4776869  0.5979395    0.00000       Uiso       1.00
       C24          C  0.5299965  0.5085986  0.5653662    0.00000       Uiso       1.00
       H13          H  0.4598886  0.5070568  0.5670098    0.00000       Uiso       1.00
       H14          H  0.4609757  0.4279268  0.5739315    0.00000       Uiso       1.00
       C25          C  0.5000009  0.5000011  0.5000007    0.00000       Uiso       1.00
       H15          H  0.5951350  0.4625077  0.6807307    0.00000       Uiso       1.00
       H16          H  0.5932496  0.5997389  0.6687269    0.00000       Uiso       1.00
       C26          C  0.8669377  0.6688756  0.3186183    0.00000       Uiso       1.00
       C27          C  0.8807298  0.6401551  0.3067709    0.00000       Uiso       1.00
       C28          C  0.9123503  0.6601853  0.2805385    0.00000       Uiso       1.00
       C29          C  0.8853154  0.7179701  0.3040296    0.00000       Uiso       1.00
       C30          C  0.9169397  0.7380651  0.2777949    0.00000       Uiso       1.00
       C31          C  0.9325547  0.7100567  0.2673319    0.00000       Uiso       1.00
       H17          H  0.0005121  0.6951529  0.3411224    0.00000       Uiso       1.00
       H18          H  0.0053332  0.7769632  0.3382404    0.00000       Uiso       1.00
       H19          H  0.8745263  0.7419448  0.3135214    0.00000       Uiso       1.00
       H20          H  0.8661653  0.6000655  0.3185195    0.00000       Uiso       1.00
       C32          C  0.0539887  0.6744433  0.2778467    0.00000       Uiso       1.00
       C33          C  0.0398185  0.6760640  0.3212212    0.00000       Uiso       1.00
       C34          C  0.0087022  0.6921670  0.3054174    0.00000       Uiso       1.00
       C35          C  0.0364995  0.6890204  0.2183616    0.00000       Uiso       1.00
       C36          C  0.0053805  0.7051342  0.2024721    0.00000       Uiso       1.00
       C37          C  0.9893809  0.7054981  0.2450960    0.00000       Uiso       1.00
       H21          H  0.9202462  0.6361216  0.2693546    0.00000       Uiso       1.00
       H22          H  0.9167569  0.6497433  0.1612141    0.00000       Uiso       1.00
       H23          H  0.0476065  0.6878183  0.1823769    0.00000       Uiso       1.00
       H24          H  0.0536578  0.6641950  0.3699198    0.00000       Uiso       1.00
       C38          C  0.0658155  0.8751358  0.2707766    0.00000       Uiso       1.00
       C39          C  0.0464787  0.8583612  0.2123961    0.00000       Uiso       1.00
       C40          C  0.0117051  0.8124590  0.1986913    0.00000       Uiso       1.00
       C41          C  0.0497976  0.8454048  0.3152556    0.00000       Uiso       1.00
       C42          C  0.0150268  0.7994918  0.3016366    0.00000       Uiso       1.00
       C43          C  0.9939092  0.7823403  0.2423889    0.00000       Uiso       1.00
       H25          H  0.9249795  0.7892759  0.1562986    0.00000       Uiso       1.00
       H26          H  0.9284688  0.7756543  0.2644392    0.00000       Uiso       1.00
       H27          H  0.0651115  0.8585560  0.3630728    0.00000       Uiso       1.00
       H28          H  0.0590601  0.8821793  0.1755299    0.00000       Uiso       1.00
       C44          C  0.8583779  0.7022915  0.0533335    0.00000       Uiso       1.00
       C45          C  0.8780928  0.7461659  0.0801870    0.00000       Uiso       1.00
       C46          C  0.9123622  0.7559350  0.1359279    0.00000       Uiso       1.00
       C47          C  0.8735072  0.6683508  0.0829282    0.00000       Uiso       1.00
       C48          C  0.9077727  0.6780551  0.1386715    0.00000       Uiso       1.00
       C49          C  0.9292772  0.7228512  0.1657583    0.00000       Uiso       1.00
       H29          H  0.9993830  0.8001958  0.1537995    0.00000       Uiso       1.00
       H30          H  0.9945620  0.7183856  0.1566815    0.00000       Uiso       1.00
       C50          C  0.9612805  0.7301866  0.2301438    0.00000       Uiso       1.00
       H31          H  0.8578756  0.6324271  0.0616040    0.00000       Uiso       1.00
       H32          H  0.8662365  0.7743065  0.0566059    0.00000       Uiso       1.00
       C51          C  0.7067596  0.6485374  0.8345726    0.00000       Uiso       1.00
       C52          C  0.7438422  0.6638756  0.8869284    0.00000       Uiso       1.00
       H33          H  0.7571446  0.7002773  0.8987553    0.00000       Uiso       1.00
        N1          N  0.6335763  0.5456305  0.7367265    0.00000       Uiso       1.00
       C53          C  0.7626392  0.6330568  0.9214532    0.00000       Uiso       1.00
       C54          C  0.6870437  0.6020259  0.8151517    0.00000       Uiso       1.00
       C55          C  0.6503257  0.5873594  0.7579006    0.00000       Uiso       1.00
       H34          H  0.6371966  0.6120138  0.7332130    0.00000       Uiso       1.00
        N2          N  0.8210288  0.6907822  0.9988728    0.00000       Uiso       1.00
       C56          C  0.8010679  0.6487410  0.9767421    0.00000       Uiso       1.00
       H35          H  0.8126464  0.6225047  0.9994183    0.00000       Uiso       1.00
       C57          C  0.7047313  0.5708830  0.8481191    0.00000       Uiso       1.00
       C58          C  0.7418070  0.5859513  0.9005219    0.00000       Uiso       1.00
       H36          H  0.6900913  0.5349211  0.8328622    0.00000       Uiso       1.00
       H37          H  0.7534766  0.5598405  0.9232538    0.00000       Uiso       1.00
       C59          C  0.7129536  0.5662441  0.3806630    0.00000       Uiso       1.00
       C60          C  0.7506534  0.5891743  0.3666567    0.00000       Uiso       1.00
       H38          H  0.7649230  0.5668821  0.3689691    0.00000       Uiso       1.00
        N3          N  0.6365635  0.5926096  0.4018056    0.00000       Uiso       1.00
       C61          C  0.7688164  0.6389067  0.3510855    0.00000       Uiso       1.00
       C62          C  0.6919791  0.5919331  0.3792172    0.00000       Uiso       1.00
       C63          C  0.6545478  0.5686550  0.3984435    0.00000       Uiso       1.00
       H39          H  0.6419399  0.5308303  0.4099328    0.00000       Uiso       1.00
        N4          N  0.8290431  0.6418809  0.3344941    0.00000       Uiso       1.00
       C64          C  0.8079010  0.6628885  0.3355465    0.00000       Uiso       1.00
       H40          H  0.8189090  0.7006831  0.3244531    0.00000       Uiso       1.00
       C65          C  0.7090184  0.6408467  0.3640584    0.00000       Uiso       1.00
       C66          C  0.7467046  0.6640365  0.3499944    0.00000       Uiso       1.00
       H41          H  0.6933843  0.6613166  0.3637902    0.00000       Uiso       1.00
       H42          H  0.7578063  0.7018000  0.3389399    0.00000       Uiso       1.00
       C67          C  0.2972138  0.5889496  0.3608649    0.00000       Uiso       1.00
       C68          C  0.2637840  0.6027149  0.3353616    0.00000       Uiso       1.00
       H43          H  0.3125451  0.5883489  0.3326043    0.00000       Uiso       1.00
       C69          C  0.2500400  0.6156697  0.2738447    0.00000       Uiso       1.00
        N5          N  0.3654149  0.5601020  0.4182461    0.00000       Uiso       1.00
       C70          C  0.2437253  0.6035495  0.3719943    0.00000       Uiso       1.00
       C71          C  0.3108666  0.5759906  0.4226030    0.00000       Uiso       1.00
       C72          C  0.3460269  0.5613934  0.4502615    0.00000       Uiso       1.00
       H44          H  0.3554364  0.5517222  0.4979851    0.00000       Uiso       1.00
       C73          C  0.1630429  0.6439980  0.2599005    0.00000       Uiso       1.00
       C74          C  0.1965118  0.6303161  0.2847360    0.00000       Uiso       1.00
       H45          H  0.1525919  0.6539631  0.2123263    0.00000       Uiso       1.00
       C75          C  0.2166834  0.6293556  0.2487430    0.00000       Uiso       1.00
        N6          N  0.0883754  0.6608083  0.3004115    0.00000       Uiso       1.00
       C76          C  0.2100646  0.6173602  0.3466632    0.00000       Uiso       1.00
       C77          C  0.1429234  0.6449193  0.2960545    0.00000       Uiso       1.00
       C78          C  0.1077633  0.6595168  0.2683961    0.00000       Uiso       1.00
       H46          H  0.0983538  0.6691879  0.2206725    0.00000       Uiso       1.00
       H47          H  0.2066546  0.6391980  0.2011313    0.00000       Uiso       1.00
       C79          C  0.1565760  0.6319600  0.3577925    0.00000       Uiso       1.00
       C80          C  0.1900059  0.6181947  0.3832958    0.00000       Uiso       1.00
       H48          H  0.1412446  0.6325604  0.3860530    0.00000       Uiso       1.00
       C81          C  0.2037496  0.6052394  0.4448125    0.00000       Uiso       1.00
       C82          C  0.2907472  0.5769119  0.4587570    0.00000       Uiso       1.00
       C83          C  0.2572781  0.5905936  0.4339214    0.00000       Uiso       1.00
       H49          H  0.3011982  0.5669469  0.5063313    0.00000       Uiso       1.00
       C84          C  0.2371062  0.5915536  0.4699143    0.00000       Uiso       1.00
       H50          H  0.2471348  0.5817110  0.5175259    0.00000       Uiso       1.00
       C85          C  0.3020441  0.2059796  0.4336292    0.00000       Uiso       1.00
       C86          C  0.2693288  0.1583658  0.4252123    0.00000       Uiso       1.00
       H51          H  0.3163472  0.2217451  0.4770868    0.00000       Uiso       1.00
       C87          C  0.2549841  0.1310370  0.4723249    0.00000       Uiso       1.00
        N7          N  0.3688812  0.3039304  0.4454976    0.00000       Uiso       1.00
       C88          C  0.2506093  0.1376871  0.3686936    0.00000       Uiso       1.00
       C89          C  0.3163047  0.2332227  0.3862055    0.00000       Uiso       1.00
       C90          C  0.3507280  0.2834279  0.3942305    0.00000       Uiso       1.00
       H52          H  0.3606471  0.3029902  0.3564189    0.00000       Uiso       1.00
       C91          C  0.1707656  0.0150925  0.3984673    0.00000       Uiso       1.00
       C92          C  0.2035069  0.0626561  0.4075854    0.00000       Uiso       1.00
       H53          H  0.1598439  0.9941916  0.4350813    0.00000       Uiso       1.00
       C93          C  0.2223466  0.0835799  0.4635839    0.00000       Uiso       1.00
        N8          N  0.0994028  0.9235552  0.2830698    0.00000       Uiso       1.00
       C94          C  0.2176742  0.0897973  0.3598735    0.00000       Uiso       1.00
       C95          C  0.1519790  0.9942629  0.3423617    0.00000       Uiso       1.00
       C96          C  0.1175559  0.9440577  0.3343368    0.00000       Uiso       1.00
       H54          H  0.1076367  0.9244953  0.3721484    0.00000       Uiso       1.00
       H55          H  0.2118317  0.0632248  0.5006606    0.00000       Uiso       1.00
       C97          C  0.1662394  0.0215049  0.2949379    0.00000       Uiso       1.00
       C98          C  0.1989546  0.0691187  0.3033548    0.00000       Uiso       1.00
       H56          H  0.1519360  0.0057395  0.2514802    0.00000       Uiso       1.00
       C99          C  0.2132990  0.0964476  0.2562421    0.00000       Uiso       1.00
      C100          C  0.2975180  0.2123919  0.3300999    0.00000       Uiso       1.00
      C101          C  0.2647766  0.1648283  0.3209818    0.00000       Uiso       1.00
       H57          H  0.3084399  0.2332941  0.2934859    0.00000       Uiso       1.00
      C102          C  0.2459366  0.1439046  0.2649831    0.00000       Uiso       1.00
       H58          H  0.2564512  0.1642599  0.2279063    0.00000       Uiso       1.00
       Cl1         Cl  0.6904285  0.6794999  0.8022367    0.00000       Uiso       1.00
       Cl2         Cl  0.6972440  0.5188854  0.3965679    0.00000       Uiso       1.00
       H59          H  0.1767977  0.6362439  0.4792391    0.00000       Uiso       1.00
       H60          H  0.1752515  0.5758951  0.5161732    0.00000       Uiso       1.00
        N9          N  0.1837391  0.6058385  0.4829884    0.00000       Uiso       1.00
       H61          H  0.3059286  0.6296648  0.2518459    0.00000       Uiso       1.00
       H62          H  0.2496002  0.6000130  0.1900559    0.00000       Uiso       1.00
       N10          N  0.2700500  0.6150700  0.2356687    0.00000       Uiso       1.00
       H63          H  0.1886929  0.0390593  0.1953758    0.00000       Uiso       1.00
       H64          H  0.1862363  0.0973598  0.1563890    0.00000       Uiso       1.00
       N11          N  0.1946530  0.0760668  0.1982426    0.00000       Uiso       1.00
       H65          H  0.3093508  0.1734630  0.5508643    0.00000       Uiso       1.00
       H66          H  0.2522852  0.1450877  0.5545042    0.00000       Uiso       1.00
       N12          N  0.2736297  0.1514180  0.5303242    0.00000       Uiso       1.00
