data_36
_audit_creation_date              0000-00-00
_audit_creation_method            'LanYouShi'
_symmetry_space_group_name_H-M    'P1'
_cell_length_a                    38.0900993
_cell_length_b                    32.1845016
_cell_length_c                    24.4521008
_cell_angle_alpha                 75.5203018
_cell_angle_beta                  115.2259979
_cell_angle_gamma                 120.2337036
loop_
_atom_site_label
_atom_site_type_symbol
_atom_site_fract_x
_atom_site_fract_y
_atom_site_fract_z
_atom_site_U_iso_or_equiv
_atom_site_adp_type
_atom_site_occupancy
        C1          C  0.6001022  0.5689344  0.4204245    0.00000       Uiso       1.00
        C2          C  0.5836247  0.5196872  0.4361911    0.00000       Uiso       1.00
        C3          C  0.5502148  0.4970860  0.4595144    0.00000       Uiso       1.00
        C4          C  0.5826015  0.5952607  0.4281351    0.00000       Uiso       1.00
        C5          C  0.5491908  0.5727224  0.4514516    0.00000       Uiso       1.00
        C6          C  0.5309067  0.5225956  0.4657286    0.00000       Uiso       1.00
        H1          H  0.4625533  0.4531425  0.3937651    0.00000       Uiso       1.00
        H2          H  0.4614775  0.5325961  0.3852954    0.00000       Uiso       1.00
        H3          H  0.5955782  0.6354342  0.4153687    0.00000       Uiso       1.00
        H4          H  0.5974438  0.4976418  0.4300573    0.00000       Uiso       1.00
        C7          C  0.4023784  0.3519078  0.4596739    0.00000       Uiso       1.00
        C8          C  0.4194305  0.3828294  0.4161479    0.00000       Uiso       1.00
        C9          C  0.4520742  0.4298648  0.4298371    0.00000       Uiso       1.00
       C10          C  0.4185289  0.3686382  0.5171847    0.00000       Uiso       1.00
       C11          C  0.4511718  0.4156617  0.5309581    0.00000       Uiso       1.00
       C12          C  0.4700420  0.4470945  0.4883638    0.00000       Uiso       1.00
        H5          H  0.5401827  0.4595550  0.4739958    0.00000       Uiso       1.00
        H6          H  0.5392348  0.4446352  0.5802200    0.00000       Uiso       1.00
        H7          H  0.4050693  0.3438641  0.5532778    0.00000       Uiso       1.00
        H8          H  0.4067132  0.3697389  0.3690585    0.00000       Uiso       1.00
       C13          C  0.3997394  0.5468191  0.4388965    0.00000       Uiso       1.00
       C14          C  0.4163022  0.5331008  0.4996531    0.00000       Uiso       1.00
       C15          C  0.4497606  0.5198949  0.5198469    0.00000       Uiso       1.00
       C16          C  0.4172038  0.5472921  0.3986163    0.00000       Uiso       1.00
       C17          C  0.4506629  0.5340980  0.4187260    0.00000       Uiso       1.00
       C18          C  0.4690316  0.5217232  0.4804085    0.00000       Uiso       1.00
        H9          H  0.5374000  0.5801484  0.5657744    0.00000       Uiso       1.00
       H10          H  0.5383479  0.5950682  0.4595502    0.00000       Uiso       1.00
       H11          H  0.4041575  0.5585010  0.3489366    0.00000       Uiso       1.00
       H12          H  0.4025136  0.5326263  0.5331560    0.00000       Uiso       1.00
       C19          C  0.5977768  0.5323339  0.6810081    0.00000       Uiso       1.00
       C20          C  0.5806394  0.5643777  0.6480108    0.00000       Uiso       1.00
       C21          C  0.5479472  0.5531495  0.5908045    0.00000       Uiso       1.00
       C22          C  0.5816626  0.4888043  0.6560669    0.00000       Uiso       1.00
       C23          C  0.5489713  0.4775130  0.5988673    0.00000       Uiso       1.00
       C24          C  0.5300164  0.5085818  0.5655021    0.00000       Uiso       1.00
       H13          H  0.4598608  0.5071493  0.5664677    0.00000       Uiso       1.00
       H14          H  0.4609366  0.4276957  0.5749374    0.00000       Uiso       1.00
       C25          C  0.4999992  0.4999988  0.5000007    0.00000       Uiso       1.00
       H15          H  0.5951918  0.4621959  0.6824198    0.00000       Uiso       1.00
       H16          H  0.5933262  0.5999883  0.6677313    0.00000       Uiso       1.00
       C26          C  0.8672101  0.6689554  0.3190439    0.00000       Uiso       1.00
       C27          C  0.8810072  0.6400955  0.3078936    0.00000       Uiso       1.00
       C28          C  0.9126521  0.6601550  0.2815915    0.00000       Uiso       1.00
       C29          C  0.8856078  0.7182194  0.3036871    0.00000       Uiso       1.00
       C30          C  0.9172565  0.7383440  0.2773815    0.00000       Uiso       1.00
       C31          C  0.9328778  0.7101960  0.2676203    0.00000       Uiso       1.00
       H17          H  0.0008811  0.6951194  0.3423866    0.00000       Uiso       1.00
       H18          H  0.0057179  0.7772545  0.3379641    0.00000       Uiso       1.00
       H19          H  0.8748150  0.7423094  0.3126042    0.00000       Uiso       1.00
       H20          H  0.8664267  0.5998667  0.3202739    0.00000       Uiso       1.00
       C32          C  0.0543907  0.6742375  0.2800532    0.00000       Uiso       1.00
       C33          C  0.0402111  0.6758881  0.3232531    0.00000       Uiso       1.00
       C34          C  0.0090763  0.6921079  0.3068223    0.00000       Uiso       1.00
       C35          C  0.0368919  0.6889029  0.2201084    0.00000       Uiso       1.00
       C36          C  0.0057544  0.7051335  0.2035916    0.00000       Uiso       1.00
       C37          C  0.9897418  0.7055252  0.2460468    0.00000       Uiso       1.00
       H21          H  0.9205497  0.6359805  0.2709548    0.00000       Uiso       1.00
       H22          H  0.9170602  0.6496634  0.1625144    0.00000       Uiso       1.00
       H23          H  0.0480063  0.6876776  0.1842592    0.00000       Uiso       1.00
       H24          H  0.0540580  0.6639480  0.3723221    0.00000       Uiso       1.00
       C38          C  0.0662562  0.8757267  0.2692043    0.00000       Uiso       1.00
       C39          C  0.0469038  0.8589159  0.2109542    0.00000       Uiso       1.00
       C40          C  0.0120997  0.8128843  0.1977899    0.00000       Uiso       1.00
       C41          C  0.0502229  0.8459012  0.3140990    0.00000       Uiso       1.00
       C42          C  0.0154216  0.7998588  0.3010206    0.00000       Uiso       1.00
       C43          C  0.9942849  0.7826724  0.2418929    0.00000       Uiso       1.00
       H25          H  0.9253097  0.7897500  0.1549716    0.00000       Uiso       1.00
       H26          H  0.9287993  0.7760671  0.2634121    0.00000       Uiso       1.00
       H27          H  0.0655491  0.8590805  0.3618154    0.00000       Uiso       1.00
       H28          H  0.0594974  0.8828101  0.1737525    0.00000       Uiso       1.00
       C44          C  0.8586498  0.7025217  0.0530235    0.00000       Uiso       1.00
       C45          C  0.8783848  0.7465420  0.0792238    0.00000       Uiso       1.00
       C46          C  0.9126787  0.7562943  0.1351212    0.00000       Uiso       1.00
       C47          C  0.8737842  0.6684181  0.0834303    0.00000       Uiso       1.00
       C48          C  0.9080743  0.6781053  0.1393311    0.00000       Uiso       1.00
       C49          C  0.9296001  0.7230480  0.1657650    0.00000       Uiso       1.00
       H29          H  0.9997652  0.8005915  0.1530118    0.00000       Uiso       1.00
       H30          H  0.9949283  0.7184566  0.1574343    0.00000       Uiso       1.00
       C50          C  0.9616262  0.7303604  0.2303312    0.00000       Uiso       1.00
       H31          H  0.8581365  0.6323740  0.0626460    0.00000       Uiso       1.00
       H32          H  0.8665247  0.7748167  0.0549764    0.00000       Uiso       1.00
       C51          C  0.7069203  0.6487979  0.8337756    0.00000       Uiso       1.00
       C52          C  0.7440304  0.6641374  0.8862079    0.00000       Uiso       1.00
       H33          H  0.6938609  0.6736700  0.8073152    0.00000       Uiso       1.00
        N1          N  0.6336718  0.5455933  0.7371893    0.00000       Uiso       1.00
       C53          C  0.7628353  0.6331621  0.9215212    0.00000       Uiso       1.00
       C54          C  0.6871840  0.6021298  0.8150589    0.00000       Uiso       1.00
       C55          C  0.6504388  0.5874642  0.7577220    0.00000       Uiso       1.00
       H34          H  0.6373048  0.6122405  0.7324229    0.00000       Uiso       1.00
        N2          N  0.8212732  0.6910259  0.9984092    0.00000       Uiso       1.00
       C56          C  0.8012924  0.6488467  0.9768937    0.00000       Uiso       1.00
       H35          H  0.8128746  0.6224850  0.0001949    0.00000       Uiso       1.00
       C57          C  0.7048788  0.5708311  0.8488099    0.00000       Uiso       1.00
       C58          C  0.7419818  0.5858994  0.9012946    0.00000       Uiso       1.00
       H36          H  0.7536553  0.5596632  0.9246516    0.00000       Uiso       1.00
       C59          C  0.7131062  0.5661603  0.3815270    0.00000       Uiso       1.00
       C60          C  0.7508350  0.5891217  0.3674561    0.00000       Uiso       1.00
       H37          H  0.7005344  0.5281708  0.3948492    0.00000       Uiso       1.00
        N3          N  0.6366684  0.5927590  0.4013859    0.00000       Uiso       1.00
       C61          C  0.7690179  0.6390263  0.3511022    0.00000       Uiso       1.00
       C62          C  0.6921214  0.5919883  0.3793704    0.00000       Uiso       1.00
       C63          C  0.6546612  0.5686773  0.3986708    0.00000       Uiso       1.00
       H38          H  0.6420389  0.5307195  0.4107675    0.00000       Uiso       1.00
        N4          N  0.8292859  0.6419135  0.3350613    0.00000       Uiso       1.00
       C64          C  0.8081326  0.6630413  0.3354921    0.00000       Uiso       1.00
       H39          H  0.8191539  0.7009714  0.3237757    0.00000       Uiso       1.00
       C65          C  0.7091798  0.6410729  0.3634335    0.00000       Uiso       1.00
       C66          C  0.7468950  0.6642948  0.3492997    0.00000       Uiso       1.00
       H40          H  0.7580100  0.7021936  0.3376238    0.00000       Uiso       1.00
       C67          C  0.1629732  0.6444364  0.2583199    0.00000       Uiso       1.00
       C68          C  0.1964868  0.6305597  0.2842945    0.00000       Uiso       1.00
       H41          H  0.1527654  0.6543811  0.2104675    0.00000       Uiso       1.00
        N5          N  0.0888328  0.6607587  0.3012819    0.00000       Uiso       1.00
       C69          C  0.2096192  0.6177357  0.3460672    0.00000       Uiso       1.00
       C70          C  0.1426854  0.6454657  0.2940852    0.00000       Uiso       1.00
       C71          C  0.1073718  0.6599260  0.2678463    0.00000       Uiso       1.00
       H42          H  0.0971318  0.6698855  0.2199584    0.00000       Uiso       1.00
       H43          H  0.2127761  0.6298112  0.2550326    0.00000       Uiso       1.00
       C72          C  0.2978425  0.5885821  0.3629179    0.00000       Uiso       1.00
       C73          C  0.2645044  0.6024641  0.3365345    0.00000       Uiso       1.00
       H44          H  0.3131629  0.5879635  0.3348014    0.00000       Uiso       1.00
        N6          N  0.3652972  0.5602979  0.4176678    0.00000       Uiso       1.00
       C74          C  0.2445109  0.6033208  0.3728825    0.00000       Uiso       1.00
       C75          C  0.3114446  0.5755908  0.4248645    0.00000       Uiso       1.00
       C76          C  0.3467583  0.5611306  0.4511034    0.00000       Uiso       1.00
       H45          H  0.3569982  0.5511711  0.4989913    0.00000       Uiso       1.00
       C77          C  0.2911568  0.5766201  0.4606297    0.00000       Uiso       1.00
       C78          C  0.2576432  0.5904968  0.4346552    0.00000       Uiso       1.00
       H46          H  0.3013646  0.5666754  0.5084822    0.00000       Uiso       1.00
       H47          H  0.2411823  0.5913434  0.4635938    0.00000       Uiso       1.00
       C79          C  0.1562876  0.6324745  0.3560318    0.00000       Uiso       1.00
       C80          C  0.1896256  0.6185924  0.3824151    0.00000       Uiso       1.00
       H48          H  0.1409672  0.6330931  0.3841482    0.00000       Uiso       1.00
       C81          C  0.1706812  0.0145417  0.4001221    0.00000       Uiso       1.00
       C82          C  0.2034845  0.0623580  0.4081407    0.00000       Uiso       1.00
       H49          H  0.1599887  0.9938992  0.4372617    0.00000       Uiso       1.00
        N7          N  0.0998725  0.9240364  0.2828615    0.00000       Uiso       1.00
       C83          C  0.2172434  0.0889443  0.3601522    0.00000       Uiso       1.00
       C84          C  0.1517257  0.9934270  0.3442416    0.00000       Uiso       1.00
       C85          C  0.1171802  0.9432145  0.3346716    0.00000       Uiso       1.00
       H50          H  0.1064567  0.9225264  0.3718138    0.00000       Uiso       1.00
       H51          H  0.2186941  0.0792268  0.4535486    0.00000       Uiso       1.00
       C86          C  0.3026934  0.2069799  0.4323243    0.00000       Uiso       1.00
       C87          C  0.2700523  0.1593312  0.4248875    0.00000       Uiso       1.00
       H52          H  0.3169879  0.2227547  0.4756209    0.00000       Uiso       1.00
        N8          N  0.3687620  0.3035981  0.4460166    0.00000       Uiso       1.00
       C88          C  0.2513917  0.1386922  0.3687259    0.00000       Uiso       1.00
       C89          C  0.3169088  0.2342075  0.3846365    0.00000       Uiso       1.00
       C90          C  0.3514543  0.2844200  0.3942065    0.00000       Uiso       1.00
       H53          H  0.3621778  0.3051082  0.3570643    0.00000       Uiso       1.00
       C91          C  0.2979539  0.2130947  0.3287560    0.00000       Uiso       1.00
       C92          C  0.2651505  0.1652785  0.3207374    0.00000       Uiso       1.00
       H54          H  0.3086458  0.2337353  0.2916164    0.00000       Uiso       1.00
       H55          H  0.2497698  0.1481361  0.2754771    0.00000       Uiso       1.00
       C93          C  0.1659417  0.0206566  0.2965539    0.00000       Uiso       1.00
       C94          C  0.1985827  0.0683053  0.3039906    0.00000       Uiso       1.00
       H56          H  0.1516472  0.0048818  0.2532572    0.00000       Uiso       1.00
        N9          N  0.6854120  0.5229008  0.8292758    0.00000       Uiso       1.00
        O1          O  0.6433761  0.4966092  0.8109163    0.00000       Uiso       1.00
        O2          O  0.7095288  0.5050723  0.8296540    0.00000       Uiso       1.00
       N10          N  0.7618497  0.7130148  0.9012671    0.00000       Uiso       1.00
        O3          O  0.7741413  0.7233524  0.9566872    0.00000       Uiso       1.00
        O4          O  0.7659609  0.7476692  0.8597088    0.00000       Uiso       1.00
       N11          N  0.6884031  0.6684076  0.3623394    0.00000       Uiso       1.00
        O5          O  0.6462976  0.6516375  0.3375691    0.00000       Uiso       1.00
        O6          O  0.7113837  0.7103394  0.3861027    0.00000       Uiso       1.00
       N12          N  0.7699374  0.5591398  0.3713225    0.00000       Uiso       1.00
        O7          O  0.7834122  0.5619890  0.3291098    0.00000       Uiso       1.00
        O8          O  0.7740465  0.5286925  0.4170943    0.00000       Uiso       1.00
       C95          C  0.2502879  0.6163786  0.2694397    0.00000       Uiso       1.00
        O9          O  0.2440394  0.6553745  0.2508089    0.00000       Uiso       1.00
       O10          O  0.2457139  0.5922120  0.2328043    0.00000       Uiso       1.00
       H57          H  0.2408393  0.6625959  0.2065821    0.00000       Uiso       1.00
       C96          C  0.2042943  0.6045527  0.4494271    0.00000       Uiso       1.00
       O11          O  0.2465029  0.6215009  0.4822061    0.00000       Uiso       1.00
       O12          O  0.1770704  0.5785786  0.4733726    0.00000       Uiso       1.00
       H58          H  0.2499455  0.6140351  0.5265073    0.00000       Uiso       1.00
       C97          C  0.2551537  0.1305162  0.4770583    0.00000       Uiso       1.00
       O13          O  0.2497958  0.0855805  0.4897398    0.00000       Uiso       1.00
       O14          O  0.2492020  0.1492962  0.5082983    0.00000       Uiso       1.00
       H59          H  0.2459290  0.0747425  0.5303442    0.00000       Uiso       1.00
       C98          C  0.2139164  0.0976995  0.2523575    0.00000       Uiso       1.00
       O15          O  0.2562316  0.1240086  0.2629043    0.00000       Uiso       1.00
       O16          O  0.1871650  0.0960503  0.2007449    0.00000       Uiso       1.00
       H60          H  0.2603291  0.1353332  0.2224681    0.00000       Uiso       1.00
