data_37
_audit_creation_date              0000-00-00
_audit_creation_method            'LanYouShi'
_symmetry_space_group_name_H-M    'P1'
_cell_length_a                    38.1211014
_cell_length_b                    32.4286003
_cell_length_c                    31.0237007
_cell_angle_alpha                 102.0848007
_cell_angle_beta                  108.5335999
_cell_angle_gamma                 109.8856964
loop_
_atom_site_label
_atom_site_type_symbol
_atom_site_fract_x
_atom_site_fract_y
_atom_site_fract_z
_atom_site_U_iso_or_equiv
_atom_site_adp_type
_atom_site_occupancy
        C1          C  0.5935767  0.5333984  0.4446428    0.00000       Uiso       1.00
        C2          C  0.5776803  0.4899057  0.4497219    0.00000       Uiso       1.00
        C3          C  0.5464209  0.4783823  0.4656537    0.00000       Uiso       1.00
        C4          C  0.5776803  0.5651785  0.4555813    0.00000       Uiso       1.00
        C5          C  0.5464209  0.5537179  0.4715180    0.00000       Uiso       1.00
        C6          C  0.5288107  0.5092788  0.4752953    0.00000       Uiso       1.00
        H1          H  0.4633102  0.4327773  0.4075578    0.00000       Uiso       1.00
        H2          H  0.4633103  0.5119148  0.4137180    0.00000       Uiso       1.00
        H3          H  0.5902148  0.6007622  0.4515261    0.00000       Uiso       1.00
        H4          H  0.5902149  0.4635178  0.4408427    0.00000       Uiso       1.00
        C7          C  0.4064225  0.3561438  0.4456553    0.00000       Uiso       1.00
        C8          C  0.4223189  0.3740640  0.4151788    0.00000       Uiso       1.00
        C9          C  0.4535783  0.4196843  0.4331104    0.00000       Uiso       1.00
       C10          C  0.4223188  0.3844475  0.4943890    0.00000       Uiso       1.00
       C11          C  0.4535783  0.4300765  0.5123866    0.00000       Uiso       1.00
       C12          C  0.4711885  0.4484288  0.4827012    0.00000       Uiso       1.00
        H5          H  0.5366890  0.4453994  0.4714525    0.00000       Uiso       1.00
        H6          H  0.5366889  0.4563161  0.5547296    0.00000       Uiso       1.00
        H7          H  0.4097843  0.3703532  0.5197863    0.00000       Uiso       1.00
        H8          H  0.4097844  0.3514209  0.3753630    0.00000       Uiso       1.00
       C13          C  0.4064225  0.5502799  0.4607674    0.00000       Uiso       1.00
       C14          C  0.4223188  0.5482562  0.5071403    0.00000       Uiso       1.00
       C15          C  0.4535783  0.5338951  0.5204681    0.00000       Uiso       1.00
       C16          C  0.4223189  0.5378726  0.4279301    0.00000       Uiso       1.00
       C17          C  0.4535783  0.5235029  0.4411918    0.00000       Uiso       1.00
       C18          C  0.4711885  0.5227606  0.4884874    0.00000       Uiso       1.00
        H9          H  0.5366889  0.5912903  0.5652363    0.00000       Uiso       1.00
       H10          H  0.5366890  0.5803736  0.4819593    0.00000       Uiso       1.00
       H11          H  0.4097843  0.5394323  0.3899983    0.00000       Uiso       1.00
       H12          H  0.4097843  0.5583646  0.5344216    0.00000       Uiso       1.00
       C19          C  0.5935766  0.5601787  0.6489337    0.00000       Uiso       1.00
       C20          C  0.5776802  0.5877752  0.6279584    0.00000       Uiso       1.00
       C21          C  0.5464208  0.5680392  0.5807671    0.00000       Uiso       1.00
       C22          C  0.5776802  0.5125024  0.6220989    0.00000       Uiso       1.00
       C23          C  0.5464208  0.4927036  0.5749028    0.00000       Uiso       1.00
       C24          C  0.5288106  0.5195326  0.5535153    0.00000       Uiso       1.00
       H13          H  0.4633102  0.5305340  0.5557525    0.00000       Uiso       1.00
       H14          H  0.4633102  0.4513964  0.5495923    0.00000       Uiso       1.00
       C25          C  0.4999996  0.5000002  0.4999998    0.00000       Uiso       1.00
       H15          H  0.5902148  0.4894532  0.6386886    0.00000       Uiso       1.00
       H16          H  0.5902147  0.6266975  0.6493720    0.00000       Uiso       1.00
       C26          C  0.8932983  0.7100379  0.2987942    0.00000       Uiso       1.00
       C27          C  0.9091952  0.6782585  0.2878556    0.00000       Uiso       1.00
       C28          C  0.9404548  0.6897200  0.2719191    0.00000       Uiso       1.00
       C29          C  0.9091943  0.7535311  0.2937156    0.00000       Uiso       1.00
       C30          C  0.9404539  0.7650553  0.2777841    0.00000       Uiso       1.00
       C31          C  0.9580646  0.7341594  0.2681422    0.00000       Uiso       1.00
       H17          H  0.0235656  0.7315239  0.3297195    0.00000       Uiso       1.00
       H18          H  0.0235647  0.8106611  0.3358804    0.00000       Uiso       1.00
       H19          H  0.8966593  0.7799184  0.3025949    0.00000       Uiso       1.00
       H20          H  0.8966610  0.6426746  0.2919104    0.00000       Uiso       1.00
       C32          C  0.0804544  0.6931610  0.2826702    0.00000       Uiso       1.00
       C33          C  0.0645576  0.7055674  0.3155074    0.00000       Uiso       1.00
       C34          C  0.0332979  0.7199365  0.3022457    0.00000       Uiso       1.00
       C35          C  0.0645580  0.6951851  0.2362975    0.00000       Uiso       1.00
       C36          C  0.0332983  0.7095456  0.2229697    0.00000       Uiso       1.00
       C37          C  0.0156877  0.7206791  0.2549503    0.00000       Uiso       1.00
       H21          H  0.9501871  0.6630647  0.2614777    0.00000       Uiso       1.00
       H22          H  0.9501876  0.6521493  0.1782009    0.00000       Uiso       1.00
       H23          H  0.0770929  0.6850773  0.2090162    0.00000       Uiso       1.00
       H24          H  0.0770922  0.7040074  0.3534391    0.00000       Uiso       1.00
       C38          C  0.0804520  0.8872962  0.2977839    0.00000       Uiso       1.00
       C39          C  0.0645560  0.8589929  0.2490501    0.00000       Uiso       1.00
       C40          C  0.0332969  0.8133637  0.2310521    0.00000       Uiso       1.00
       C41          C  0.0645556  0.8693753  0.3282601    0.00000       Uiso       1.00
       C42          C  0.0332966  0.8237547  0.3103281    0.00000       Uiso       1.00
       C43          C  0.0156868  0.7950106  0.2607371    0.00000       Uiso       1.00
       H25          H  0.9501859  0.7871230  0.1887087    0.00000       Uiso       1.00
       H26          H  0.9501855  0.7980384  0.2719855    0.00000       Uiso       1.00
       H27          H  0.0770899  0.8920180  0.3680760    0.00000       Uiso       1.00
       H28          H  0.0770905  0.8730879  0.2236531    0.00000       Uiso       1.00
       C44          C  0.8932993  0.6832608  0.0945039    0.00000       Uiso       1.00
       C45          C  0.9091951  0.7309370  0.1213391    0.00000       Uiso       1.00
       C46          C  0.9404544  0.7507356  0.1685353    0.00000       Uiso       1.00
       C47          C  0.9091960  0.6556644  0.1154791    0.00000       Uiso       1.00
       C48          C  0.9404553  0.6754003  0.1626703    0.00000       Uiso       1.00
       C49          C  0.9580650  0.7239068  0.1899225    0.00000       Uiso       1.00
       H29          H  0.0235653  0.7920442  0.1938463    0.00000       Uiso       1.00
       H30          H  0.0235663  0.7129070  0.1876854    0.00000       Uiso       1.00
       C50          C  0.9868759  0.7434390  0.2434381    0.00000       Uiso       1.00
       H31          H  0.8966619  0.6167423  0.0940651    0.00000       Uiso       1.00
       H32          H  0.8966602  0.7539860  0.1047497    0.00000       Uiso       1.00
       C51          C  0.8115906  0.6532898  0.9733136    0.00000       Uiso       1.00
       C52          C  0.7846402  0.6588599  0.9345440    0.00000       Uiso       1.00
       C53          C  0.7576169  0.6192614  0.8921518    0.00000       Uiso       1.00
       C54          C  0.8116444  0.6102853  0.9700440    0.00000       Uiso       1.00
        O1          O  0.8402530  0.6114691  0.0117511    0.00000       Uiso       1.00
        O2          O  0.8402913  0.6881321  0.0177752    0.00000       Uiso       1.00
        B1          B  0.8582124  0.6611125  0.0417405    0.00000       Uiso       1.00
       C55          C  0.7018725  0.6727701  0.8152300    0.00000       Uiso       1.00
       C56          C  0.7293156  0.6685314  0.8548197    0.00000       Uiso       1.00
       C57          C  0.7292595  0.6241775  0.8512849    0.00000       Uiso       1.00
       C58          C  0.6752315  0.6331536  0.7733928    0.00000       Uiso       1.00
        O3          O  0.6466232  0.6319705  0.7316863    0.00000       Uiso       1.00
        O4          O  0.7560760  0.7088704  0.8968869    0.00000       Uiso       1.00
       C59          C  0.7835001  0.7043811  0.9364296    0.00000       Uiso       1.00
        O5          O  0.8067137  0.7391220  0.9729015    0.00000       Uiso       1.00
       C60          C  0.6752855  0.5901490  0.7701232    0.00000       Uiso       1.00
       C61          C  0.7022360  0.5845790  0.8088925    0.00000       Uiso       1.00
        O6          O  0.6465850  0.5553076  0.7256622    0.00000       Uiso       1.00
        B2          B  0.6286637  0.5823271  0.7016970    0.00000       Uiso       1.00
       C62          C  0.7850035  0.5706687  0.9282067    0.00000       Uiso       1.00
       C63          C  0.7575606  0.5749075  0.8886169    0.00000       Uiso       1.00
        O7          O  0.7308002  0.5345685  0.8465496    0.00000       Uiso       1.00
       C64          C  0.7033762  0.5390578  0.8070070    0.00000       Uiso       1.00
        O8          O  0.6801627  0.5043169  0.7705350    0.00000       Uiso       1.00
       C65          C  0.8115909  0.6583006  0.3382765    0.00000       Uiso       1.00
       C66          C  0.7846406  0.6257803  0.3500959    0.00000       Uiso       1.00
       C67          C  0.7576172  0.6383554  0.3654648    0.00000       Uiso       1.00
       C68          C  0.8116448  0.7013590  0.3416000    0.00000       Uiso       1.00
        O9          O  0.8402528  0.7287840  0.3285013    0.00000       Uiso       1.00
       O10          O  0.8402910  0.6521592  0.3225155    0.00000       Uiso       1.00
        B3          B  0.8582121  0.6970999  0.3164712    0.00000       Uiso       1.00
       C69          C  0.7018728  0.5291026  0.3866422    0.00000       Uiso       1.00
       C70          C  0.7293159  0.5607843  0.3744957    0.00000       Uiso       1.00
       C71          C  0.7292598  0.6050821  0.3779744    0.00000       Uiso       1.00
       C72          C  0.6752317  0.5420783  0.4018385    0.00000       Uiso       1.00
       O11          O  0.6466234  0.5146531  0.4149368    0.00000       Uiso       1.00
       O12          O  0.7560764  0.5472057  0.3591888    0.00000       Uiso       1.00
       C73          C  0.7835005  0.5791190  0.3470703    0.00000       Uiso       1.00
       O13          O  0.8067141  0.5675915  0.3338118    0.00000       Uiso       1.00
       C74          C  0.6752857  0.5851368  0.4051622    0.00000       Uiso       1.00
       C75          C  0.7022363  0.6176572  0.3933432    0.00000       Uiso       1.00
       O14          O  0.6465853  0.5912780  0.4209228    0.00000       Uiso       1.00
        B4          B  0.6286639  0.5463371  0.4269666    0.00000       Uiso       1.00
       C76          C  0.7850040  0.7143348  0.3567965    0.00000       Uiso       1.00
       C77          C  0.7575609  0.6826531  0.3689434    0.00000       Uiso       1.00
       O15          O  0.7308005  0.6962318  0.3842503    0.00000       Uiso       1.00
       C78          C  0.7033765  0.6643186  0.3963690    0.00000       Uiso       1.00
       O16          O  0.6801630  0.6758461  0.4096276    0.00000       Uiso       1.00
       C79          C  0.3763234  0.5620402  0.4474225    0.00000       Uiso       1.00
        N1          N  0.3525079  0.5710227  0.4102238    0.00000       Uiso       1.00
       C80          C  0.3228531  0.5857072  0.4115123    0.00000       Uiso       1.00
       C81          C  0.3138696  0.5929589  0.4500354    0.00000       Uiso       1.00
       C82          C  0.2349068  0.6288511  0.4098156    0.00000       Uiso       1.00
       C83          C  0.2641217  0.6145237  0.4104421    0.00000       Uiso       1.00
       C84          C  0.2727819  0.6074017  0.3715178    0.00000       Uiso       1.00
       C85          C  0.2849224  0.6071562  0.4494314    0.00000       Uiso       1.00
       C86          C  0.3020450  0.5930836  0.3725932    0.00000       Uiso       1.00
       O17          O  0.2595607  0.6085446  0.2985803    0.00000       Uiso       1.00
       H33          H  0.1157077  0.6767581  0.2637480    0.00000       Uiso       1.00
       H34          H  0.2084464  0.6310340  0.2624169    0.00000       Uiso       1.00
       H35          H  0.1783250  0.6559160  0.3993054    0.00000       Uiso       1.00
       H36          H  0.3558325  0.5671307  0.3795294    0.00000       Uiso       1.00
       C87          C  0.1107115  0.6814850  0.2946118    0.00000       Uiso       1.00
        N2          N  0.1345269  0.6725026  0.3318105    0.00000       Uiso       1.00
       C88          C  0.1641818  0.6578180  0.3305219    0.00000       Uiso       1.00
       C89          C  0.1731653  0.6505664  0.2919989    0.00000       Uiso       1.00
       C90          C  0.2521281  0.6146742  0.3322186    0.00000       Uiso       1.00
       C91          C  0.2229132  0.6290015  0.3315921    0.00000       Uiso       1.00
       C92          C  0.2142530  0.6361236  0.3705164    0.00000       Uiso       1.00
       C93          C  0.2021125  0.6363691  0.2926029    0.00000       Uiso       1.00
       C94          C  0.1849899  0.6504416  0.3694411    0.00000       Uiso       1.00
       O18          O  0.2274742  0.6349806  0.4434540    0.00000       Uiso       1.00
       H37          H  0.3713272  0.5667672  0.4782862    0.00000       Uiso       1.00
       H38          H  0.2785885  0.6124913  0.4796173    0.00000       Uiso       1.00
       H39          H  0.3087098  0.5876092  0.3427288    0.00000       Uiso       1.00
       H40          H  0.1312024  0.6763946  0.3625048    0.00000       Uiso       1.00
       C95          C  0.3763234  0.3142846  0.4289012    0.00000       Uiso       1.00
        N3          N  0.3525079  0.2814867  0.4422845    0.00000       Uiso       1.00
       C96          C  0.3228531  0.2371475  0.4113412    0.00000       Uiso       1.00
       C97          C  0.3138696  0.2209124  0.3638346    0.00000       Uiso       1.00
       C98          C  0.2349068  0.1060576  0.3250917    0.00000       Uiso       1.00
       C99          C  0.2641217  0.1495998  0.3536800    0.00000       Uiso       1.00
      C100          C  0.2727818  0.1653820  0.4012645    0.00000       Uiso       1.00
      C101          C  0.2849225  0.1777681  0.3354915    0.00000       Uiso       1.00
      C102          C  0.3020449  0.2089630  0.4294522    0.00000       Uiso       1.00
       O19          O  0.2595606  0.1510178  0.4609809    0.00000       Uiso       1.00
       H41          H  0.1157077  0.9389534  0.3519604    0.00000       Uiso       1.00
       H42          H  0.2084462  0.0774144  0.4460300    0.00000       Uiso       1.00
       H43          H  0.1783251  0.0224112  0.2790203    0.00000       Uiso       1.00
       H44          H  0.3558324  0.2887032  0.4763033    0.00000       Uiso       1.00
      C103          C  0.1107115  0.9292303  0.3161005    0.00000       Uiso       1.00
        N4          N  0.1345269  0.9620281  0.3027172    0.00000       Uiso       1.00
      C104          C  0.1641817  0.0063660  0.3336605    0.00000       Uiso       1.00
      C105          C  0.1731652  0.0226011  0.3811670    0.00000       Uiso       1.00
      C106          C  0.2521281  0.1374558  0.4199100    0.00000       Uiso       1.00
      C107          C  0.2229131  0.0939136  0.3913216    0.00000       Uiso       1.00
      C108          C  0.2142530  0.0781315  0.3437372    0.00000       Uiso       1.00
      C109          C  0.2021124  0.0657454  0.4095101    0.00000       Uiso       1.00
      C110          C  0.1849899  0.0345504  0.3155495    0.00000       Uiso       1.00
       O20          O  0.2274743  0.0924956  0.2840208    0.00000       Uiso       1.00
       H45          H  0.3713272  0.3045614  0.3930413    0.00000       Uiso       1.00
       H46          H  0.2785886  0.1660990  0.2989717    0.00000       Uiso       1.00
       H47          H  0.3087097  0.2211022  0.4659813    0.00000       Uiso       1.00
       H48          H  0.1312025  0.9548116  0.2686984    0.00000       Uiso       1.00
       Br1         Br  0.7008719  0.7370137  0.8187764    0.00000       Uiso       1.00
       Br2         Br  0.7860039  0.5064251  0.9246606    0.00000       Uiso       1.00
       Br3         Br  0.7008722  0.4638584  0.3820953    0.00000       Uiso       1.00
       Br4         Br  0.7860043  0.7795788  0.3613431    0.00000       Uiso       1.00
        F1          F  0.3333901  0.5863696  0.4910442    0.00000       Uiso       1.00
        F2          F  0.1536448  0.6571557  0.2509900    0.00000       Uiso       1.00
        F3          F  0.3333902  0.2470221  0.3423463    0.00000       Uiso       1.00
        F4          F  0.1536447  0.9964927  0.4026554    0.00000       Uiso       1.00
