data_38
_audit_creation_date              0000-00-00
_audit_creation_method            'LanYouShi'
_symmetry_space_group_name_H-M    'P1'
_cell_length_a                    40.3023987
_cell_length_b                    32.4286995
_cell_length_c                    32.1934013
_cell_angle_alpha                 90.0921021
_cell_angle_beta                  113.5000992
_cell_angle_gamma                 113.6828995
loop_
_atom_site_label
_atom_site_type_symbol
_atom_site_fract_x
_atom_site_fract_y
_atom_site_fract_z
_atom_site_U_iso_or_equiv
_atom_site_adp_type
_atom_site_occupancy
        C1          C  0.5915133  0.5526713  0.4495037    0.00000       Uiso       1.00
        C2          C  0.5759674  0.5067641  0.4540063    0.00000       Uiso       1.00
        C3          C  0.5453971  0.4893113  0.4684620    0.00000       Uiso       1.00
        C4          C  0.5759674  0.5808720  0.4595279    0.00000       Uiso       1.00
        C5          C  0.5453970  0.5634809  0.4739882    0.00000       Uiso       1.00
        C6          C  0.5281751  0.5167348  0.4772337    0.00000       Uiso       1.00
        H1          H  0.4641187  0.4479103  0.4122364    0.00000       Uiso       1.00
        H2          H  0.4641187  0.5258231  0.4180415    0.00000       Uiso       1.00
        H3          H  0.5882255  0.6183693  0.4559302    0.00000       Uiso       1.00
        H4          H  0.5882256  0.4832492  0.4458627    0.00000       Uiso       1.00
        C7          C  0.4084851  0.3586765  0.4471222    0.00000       Uiso       1.00
        C8          C  0.4240310  0.3840597  0.4186871    0.00000       Uiso       1.00
        C9          C  0.4546013  0.4288778  0.4361414    0.00000       Uiso       1.00
       C10          C  0.4240310  0.3786973  0.4933279    0.00000       Uiso       1.00
       C11          C  0.4546013  0.4235109  0.5108443    0.00000       Uiso       1.00
       C12          C  0.4718232  0.4493205  0.4831853    0.00000       Uiso       1.00
        H5          H  0.5358797  0.4543157  0.4737529    0.00000       Uiso       1.00
        H6          H  0.5358797  0.4486779  0.5522258    0.00000       Uiso       1.00
        H7          H  0.4117728  0.3584466  0.5170366    0.00000       Uiso       1.00
        H8          H  0.4117728  0.3682239  0.3809448    0.00000       Uiso       1.00
       C13          C  0.4084850  0.5498078  0.4613629    0.00000       Uiso       1.00
       C14          C  0.4240309  0.5399705  0.5053439    0.00000       Uiso       1.00
       C15          C  0.4546012  0.5257227  0.5184599    0.00000       Uiso       1.00
       C16          C  0.4240310  0.5453330  0.4307032    0.00000       Uiso       1.00
       C17          C  0.4546013  0.5310896  0.4437569    0.00000       Uiso       1.00
       C18          C  0.4718232  0.5225019  0.4886379    0.00000       Uiso       1.00
        H9          H  0.5358796  0.5815631  0.5621267    0.00000       Uiso       1.00
       H10          H  0.5358797  0.5872009  0.4836538    0.00000       Uiso       1.00
       H11          H  0.4117727  0.5533254  0.3947362    0.00000       Uiso       1.00
       H12          H  0.4117727  0.5435481  0.5308280    0.00000       Uiso       1.00
       C19          C  0.5915133  0.5388411  0.6420094    0.00000       Uiso       1.00
       C20          C  0.5759673  0.5692023  0.6219609    0.00000       Uiso       1.00
       C21          C  0.5453970  0.5560849  0.5769349    0.00000       Uiso       1.00
       C22          C  0.5759674  0.4950944  0.6164392    0.00000       Uiso       1.00
       C23          C  0.5453970  0.4819153  0.5714087    0.00000       Uiso       1.00
       C24          C  0.5281751  0.5114394  0.5509413    0.00000       Uiso       1.00
       H13          H  0.4641186  0.5162075  0.5518822    0.00000       Uiso       1.00
       H14          H  0.4641187  0.4382948  0.5460771    0.00000       Uiso       1.00
       C25          C  0.4999992  0.4999992  0.4999996    0.00000       Uiso       1.00
       H15          H  0.5882255  0.4698553  0.6322952    0.00000       Uiso       1.00
       H16          H  0.5882255  0.6049755  0.6423627    0.00000       Uiso       1.00
       C26          C  0.9066731  0.6964206  0.2995895    0.00000       Uiso       1.00
       C27          C  0.9222193  0.6682200  0.2895654    0.00000       Uiso       1.00
       C28          C  0.9527897  0.6856113  0.2751054    0.00000       Uiso       1.00
       C29          C  0.9222191  0.7423279  0.2950870    0.00000       Uiso       1.00
       C30          C  0.9527895  0.7597809  0.2806316    0.00000       Uiso       1.00
       C31          C  0.9700116  0.7323574  0.2718599    0.00000       Uiso       1.00
       H17          H  0.0340690  0.7232692  0.3310524    0.00000       Uiso       1.00
       H18          H  0.0340688  0.8011819  0.3368575    0.00000       Uiso       1.00
       H19          H  0.9099608  0.7658427  0.3032306    0.00000       Uiso       1.00
       H20          H  0.9099611  0.6307227  0.2931630    0.00000       Uiso       1.00
       C32          C  0.0897030  0.6992849  0.2877313    0.00000       Uiso       1.00
       C33          C  0.0741568  0.7037595  0.3183909    0.00000       Uiso       1.00
       C34          C  0.0435865  0.7180028  0.3053370    0.00000       Uiso       1.00
       C35          C  0.0741571  0.7091222  0.2437503    0.00000       Uiso       1.00
       C36          C  0.0435868  0.7233700  0.2306342    0.00000       Uiso       1.00
       C37          C  0.0263646  0.7265906  0.2604561    0.00000       Uiso       1.00
       H21          H  0.9623072  0.6618914  0.2654398    0.00000       Uiso       1.00
       H22          H  0.9623075  0.6675294  0.1869670    0.00000       Uiso       1.00
       H23          H  0.0864155  0.7055448  0.2182663    0.00000       Uiso       1.00
       H24          H  0.0864150  0.6957670  0.3543578    0.00000       Uiso       1.00
       C38          C  0.0897026  0.8904160  0.3019721    0.00000       Uiso       1.00
       C39          C  0.0741568  0.8703952  0.2557665    0.00000       Uiso       1.00
       C40          C  0.0435866  0.8255816  0.2382498    0.00000       Uiso       1.00
       C41          C  0.0741565  0.8650326  0.3304071    0.00000       Uiso       1.00
       C42          C  0.0435863  0.8202145  0.3129526    0.00000       Uiso       1.00
       C43          C  0.0263645  0.7997718  0.2659087    0.00000       Uiso       1.00
       H25          H  0.9623072  0.8004145  0.1968680    0.00000       Uiso       1.00
       H26          H  0.9623069  0.7947765  0.2753408    0.00000       Uiso       1.00
       H27          H  0.0864146  0.8808683  0.3681493    0.00000       Uiso       1.00
       H28          H  0.0864151  0.8906460  0.2320579    0.00000       Uiso       1.00
       C44          C  0.9066740  0.7102515  0.1070843    0.00000       Uiso       1.00
       C45          C  0.9222198  0.7539981  0.1326545    0.00000       Uiso       1.00
       C46          C  0.9527900  0.7671772  0.1776851    0.00000       Uiso       1.00
       C47          C  0.9222199  0.6798903  0.1271328    0.00000       Uiso       1.00
       C48          C  0.9527901  0.6930077  0.1721588    0.00000       Uiso       1.00
       C49          C  0.9700119  0.7376531  0.1981525    0.00000       Uiso       1.00
       H29          H  0.0340694  0.8107979  0.2030170    0.00000       Uiso       1.00
       H30          H  0.0340695  0.7328852  0.1972119    0.00000       Uiso       1.00
       C50          C  0.9981877  0.7490932  0.2490943    0.00000       Uiso       1.00
       H31          H  0.9099619  0.6441172  0.1067310    0.00000       Uiso       1.00
       H32          H  0.9099616  0.7792372  0.1167985    0.00000       Uiso       1.00
       C51          C  0.8081641  0.6043164  0.9578142    0.00000       Uiso       1.00
       C52          C  0.7774945  0.5953495  0.9131306    0.00000       Uiso       1.00
       H33          H  0.8178297  0.5780479  0.9697285    0.00000       Uiso       1.00
        N1          N  0.8751988  0.6970678  0.0609304    0.00000       Uiso       1.00
       C53          C  0.7650580  0.6292967  0.8978118    0.00000       Uiso       1.00
       C54          C  0.8263127  0.6471291  0.9870502    0.00000       Uiso       1.00
       C55          C  0.8586209  0.6573986  0.0341828    0.00000       Uiso       1.00
       H34          H  0.8683159  0.6311311  0.0461395    0.00000       Uiso       1.00
       H35          H  0.7629271  0.5605785  0.8896334    0.00000       Uiso       1.00
       C56          C  0.6847391  0.5682800  0.7779958    0.00000       Uiso       1.00
       C57          C  0.7152526  0.5768045  0.8224223    0.00000       Uiso       1.00
        N2          N  0.6229884  0.5520248  0.6881633    0.00000       Uiso       1.00
       C58          C  0.7331290  0.6197960  0.8512810    0.00000       Uiso       1.00
       C59          C  0.6718743  0.6019636  0.7620426    0.00000       Uiso       1.00
       C60          C  0.6395664  0.5916939  0.7149109    0.00000       Uiso       1.00
       H36          H  0.6298714  0.6179615  0.7029542    0.00000       Uiso       1.00
       H37          H  0.7253633  0.5490882  0.8348676    0.00000       Uiso       1.00
       C61          C  0.6900229  0.6447763  0.7912785    0.00000       Uiso       1.00
       C62          C  0.7206926  0.6537432  0.8359622    0.00000       Uiso       1.00
       H38          H  0.6803574  0.6710448  0.7793643    0.00000       Uiso       1.00
       H39          H  0.7354184  0.6884219  0.8596799    0.00000       Uiso       1.00
       C63          C  0.8134480  0.6808126  0.9710969    0.00000       Uiso       1.00
       C64          C  0.7829345  0.6722882  0.9266704    0.00000       Uiso       1.00
       H40          H  0.7725157  0.6996775  0.9137586    0.00000       Uiso       1.00
       C65          C  0.8081643  0.7038467  0.3503496    0.00000       Uiso       1.00
       C66          C  0.7774947  0.6821440  0.3643636    0.00000       Uiso       1.00
       H41          H  0.8178298  0.7397807  0.3481008    0.00000       Uiso       1.00
        N3          N  0.8751988  0.6781296  0.3142687    0.00000       Uiso       1.00
       C67          C  0.7650582  0.6357603  0.3672460    0.00000       Uiso       1.00
       C68          C  0.8263129  0.6791826  0.3392622    0.00000       Uiso       1.00
       C69          C  0.8586208  0.7012208  0.3244383    0.00000       Uiso       1.00
       H42          H  0.8683158  0.7371833  0.3221766    0.00000       Uiso       1.00
       H43          H  0.7629272  0.7023476  0.3732934    0.00000       Uiso       1.00
       C70          C  0.6847392  0.6164581  0.4067430    0.00000       Uiso       1.00
       C71          C  0.7152526  0.6384471  0.3928300    0.00000       Uiso       1.00
        N4          N  0.6229885  0.5709627  0.4348250    0.00000       Uiso       1.00
       C72          C  0.7331291  0.6133321  0.3818478    0.00000       Uiso       1.00
       C73          C  0.6718744  0.5699098  0.4098315    0.00000       Uiso       1.00
       C74          C  0.6395665  0.5478716  0.4246554    0.00000       Uiso       1.00
       H44          H  0.6298715  0.5119090  0.4269171    0.00000       Uiso       1.00
       H45          H  0.7253633  0.6762741  0.3904954    0.00000       Uiso       1.00
       C75          C  0.6900231  0.5452456  0.3987442    0.00000       Uiso       1.00
       C76          C  0.7206928  0.5669484  0.3847302    0.00000       Uiso       1.00
       H46          H  0.6803576  0.5093116  0.4009930    0.00000       Uiso       1.00
       H47          H  0.7354187  0.5469956  0.3757384    0.00000       Uiso       1.00
       C77          C  0.8134481  0.6326343  0.3423507    0.00000       Uiso       1.00
       C78          C  0.7829347  0.6106453  0.3562638    0.00000       Uiso       1.00
       H48          H  0.7725160  0.5728373  0.3587568    0.00000       Uiso       1.00
       C79          C  0.3790495  0.5615609  0.4482515    0.00000       Uiso       1.00
        N5          N  0.3557590  0.5758333  0.4127744    0.00000       Uiso       1.00
       C80          C  0.3267579  0.5876409  0.4134602    0.00000       Uiso       1.00
       C81          C  0.3179725  0.5864407  0.4496008    0.00000       Uiso       1.00
       C82          C  0.2407504  0.6233498  0.4102941    0.00000       Uiso       1.00
       C83          C  0.2693213  0.6114798  0.4114051    0.00000       Uiso       1.00
       C84          C  0.2777905  0.6128607  0.3748806    0.00000       Uiso       1.00
       C85          C  0.2896634  0.5981999  0.4485158    0.00000       Uiso       1.00
       C86          C  0.3064085  0.6009150  0.3764154    0.00000       Uiso       1.00
        O1          O  0.2648608  0.6273344  0.3059151    0.00000       Uiso       1.00
       H49          H  0.1241791  0.6897590  0.2705289    0.00000       Uiso       1.00
       H50          H  0.2148733  0.6524952  0.2709272    0.00000       Uiso       1.00
       H51          H  0.1854160  0.6475036  0.3993820    0.00000       Uiso       1.00
       H52          H  0.3590102  0.5783368  0.3839100    0.00000       Uiso       1.00
       C87          C  0.1192930  0.6879089  0.2995231    0.00000       Uiso       1.00
        N6          N  0.1425835  0.6736366  0.3350003    0.00000       Uiso       1.00
       C88          C  0.1715845  0.6618290  0.3343145    0.00000       Uiso       1.00
       C89          C  0.1803700  0.6630291  0.2981739    0.00000       Uiso       1.00
       C90          C  0.2575921  0.6261201  0.3374805    0.00000       Uiso       1.00
       C91          C  0.2290212  0.6379901  0.3363695    0.00000       Uiso       1.00
       C92          C  0.2205519  0.6366092  0.3728940    0.00000       Uiso       1.00
       C93          C  0.2086790  0.6512700  0.2992589    0.00000       Uiso       1.00
       C94          C  0.1919339  0.6485549  0.3713592    0.00000       Uiso       1.00
        O2          O  0.2334817  0.6221356  0.4418595    0.00000       Uiso       1.00
       H53          H  0.3741634  0.5597110  0.4772457    0.00000       Uiso       1.00
       H54          H  0.2834692  0.5969747  0.4768475    0.00000       Uiso       1.00
       H55          H  0.3129264  0.6019663  0.3483926    0.00000       Uiso       1.00
       H56          H  0.1393322  0.6711332  0.3638647    0.00000       Uiso       1.00
       C95          C  0.3790496  0.3174878  0.4307981    0.00000       Uiso       1.00
        N7          N  0.3557591  0.2799250  0.4429848    0.00000       Uiso       1.00
       C96          C  0.3267581  0.2391164  0.4132980    0.00000       Uiso       1.00
       C97          C  0.3179727  0.2315311  0.3683720    0.00000       Uiso       1.00
       C98          C  0.2407506  0.1174001  0.3304566    0.00000       Uiso       1.00
       C99          C  0.2693215  0.1578410  0.3579164    0.00000       Uiso       1.00
      C100          C  0.2777907  0.1649292  0.4029102    0.00000       Uiso       1.00
      C101          C  0.2896637  0.1914630  0.3411480    0.00000       Uiso       1.00
      C102          C  0.3064087  0.2054929  0.4299933    0.00000       Uiso       1.00
        O3          O  0.2648610  0.1375259  0.4589459    0.00000       Uiso       1.00
       H57          H  0.1241790  0.9344181  0.3536507    0.00000       Uiso       1.00
       H58          H  0.2148735  0.0623776  0.4439465    0.00000       Uiso       1.00
       H59          H  0.1854163  0.0379120  0.2860345    0.00000       Uiso       1.00
       H60          H  0.3590103  0.2806728  0.4751004    0.00000       Uiso       1.00
      C103          C  0.1192929  0.9313819  0.3197704    0.00000       Uiso       1.00
        N8          N  0.1425833  0.9689448  0.3075837    0.00000       Uiso       1.00
      C104          C  0.1715848  0.0097551  0.3372705    0.00000       Uiso       1.00
      C105          C  0.1803703  0.0173404  0.3821965    0.00000       Uiso       1.00
      C106          C  0.2575923  0.1314714  0.4201119    0.00000       Uiso       1.00
      C107          C  0.2290214  0.0910306  0.3926521    0.00000       Uiso       1.00
      C108          C  0.2205522  0.0839423  0.3476583    0.00000       Uiso       1.00
      C109          C  0.2086793  0.0574085  0.4094205    0.00000       Uiso       1.00
      C110          C  0.1919342  0.0433787  0.3205752    0.00000       Uiso       1.00
        O4          O  0.2334820  0.1113456  0.2916225    0.00000       Uiso       1.00
       H61          H  0.3741635  0.3144517  0.3969178    0.00000       Uiso       1.00
       H62          H  0.2834694  0.1864939  0.3066220    0.00000       Uiso       1.00
       H63          H  0.3129266  0.2109595  0.4645340    0.00000       Uiso       1.00
       H64          H  0.1393321  0.9681970  0.2754681    0.00000       Uiso       1.00
       H65          H  0.8376296  0.7269429  0.0373933    0.00000       Uiso       1.00
       H66          H  0.8396890  0.7566696  0.9862545    0.00000       Uiso       1.00
        N9          N  0.8316444  0.7248346  0.0004921    0.00000       Uiso       1.00
       H67          H  0.6333908  0.5064301  0.7278493    0.00000       Uiso       1.00
       H68          H  0.6856650  0.5081426  0.7466894    0.00000       Uiso       1.00
       N10          N  0.6665429  0.5242580  0.7486016    0.00000       Uiso       1.00
       H69          H  0.8376296  0.6106854  0.3002366    0.00000       Uiso       1.00
       H70          H  0.8396893  0.5830184  0.3534342    0.00000       Uiso       1.00
       N11          N  0.8316444  0.6068084  0.3311526    0.00000       Uiso       1.00
       H71          H  0.6333908  0.6269596  0.4055413    0.00000       Uiso       1.00
       H72          H  0.6856650  0.6775213  0.4389753    0.00000       Uiso       1.00
       N12          N  0.6665429  0.6422840  0.4179412    0.00000       Uiso       1.00
        F1          F  0.3370626  0.5734246  0.4885917    0.00000       Uiso       1.00
        F2          F  0.1612798  0.6760453  0.2591829    0.00000       Uiso       1.00
        F3          F  0.3370628  0.2636375  0.3484712    0.00000       Uiso       1.00
        F4          F  0.1612796  0.9852324  0.4020973    0.00000       Uiso       1.00
