data_41
_audit_creation_date              0000-00-00
_audit_creation_method            'LanYouShi'
_symmetry_space_group_name_H-M    'P1'
_cell_length_a                    54.5787010
_cell_length_b                    44.7313004
_cell_length_c                    44.7313004
_cell_angle_alpha                 85.2242966
_cell_angle_beta                  112.0655975
_cell_angle_gamma                 67.9341965
loop_
_atom_site_label
_atom_site_type_symbol
_atom_site_fract_x
_atom_site_fract_y
_atom_site_fract_z
_atom_site_U_iso_or_equiv
_atom_site_adp_type
_atom_site_occupancy
        C1          C  0.3655222  0.5730731  0.2928510    0.00000       Uiso       1.00
        C2          C  0.3768937  0.5399302  0.3105425    0.00000       Uiso       1.00
        C3          C  0.3992550  0.5278296  0.3432449    0.00000       Uiso       1.00
        C4          C  0.3768936  0.5939372  0.3082904    0.00000       Uiso       1.00
        C5          C  0.3992549  0.5818815  0.3409910    0.00000       Uiso       1.00
        C6          C  0.4118524  0.5481158  0.3589948    0.00000       Uiso       1.00
        H1          H  0.5937839  0.3564712  0.5025855    0.00000       Uiso       1.00
        H2          H  0.5937835  0.5537835  0.4943577    0.00000       Uiso       1.00
        H3          H  0.3679270  0.6210142  0.2941976    0.00000       Uiso       1.00
        H4          H  0.3679272  0.5225438  0.2983038    0.00000       Uiso       1.00
        C7          C  0.6344784  0.2928501  0.5730737    0.00000       Uiso       1.00
        C8          C  0.6231070  0.3105416  0.5399309    0.00000       Uiso       1.00
        C9          C  0.6007456  0.3432440  0.5278304    0.00000       Uiso       1.00
       C10          C  0.6231069  0.3082895  0.5939378    0.00000       Uiso       1.00
       C11          C  0.6007454  0.3409901  0.5818822    0.00000       Uiso       1.00
       C12          C  0.5881481  0.3589939  0.5481164    0.00000       Uiso       1.00
        H5          H  0.4062168  0.5025848  0.3564720    0.00000       Uiso       1.00
        H6          H  0.4062164  0.4943568  0.5537839    0.00000       Uiso       1.00
        H7          H  0.6320734  0.2941966  0.6210148    0.00000       Uiso       1.00
        H8          H  0.6320736  0.2983029  0.5225446    0.00000       Uiso       1.00
       C13          C  0.6344779  0.5726717  0.5614053    0.00000       Uiso       1.00
       C14          C  0.6231064  0.5663517  0.5831767    0.00000       Uiso       1.00
       C15          C  0.6007450  0.5560105  0.5729159    0.00000       Uiso       1.00
       C16          C  0.6231064  0.5686038  0.5291699    0.00000       Uiso       1.00
       C17          C  0.6007451  0.5582646  0.5188640    0.00000       Uiso       1.00
       C18          C  0.5881477  0.5528581  0.5400324    0.00000       Uiso       1.00
        H9          H  0.4062161  0.5911983  0.5497456    0.00000       Uiso       1.00
       H10          H  0.4062166  0.5994263  0.3524338    0.00000       Uiso       1.00
       H11          H  0.6320730  0.5737301  0.5110594    0.00000       Uiso       1.00
       H12          H  0.6320729  0.5696238  0.6095296    0.00000       Uiso       1.00
       C19          C  0.3655216  0.5614045  0.5726721    0.00000       Uiso       1.00
       C20          C  0.3768930  0.5831758  0.5663521    0.00000       Uiso       1.00
       C21          C  0.3992545  0.5729151  0.5560110    0.00000       Uiso       1.00
       C22          C  0.3768931  0.5291690  0.5686042    0.00000       Uiso       1.00
       C23          C  0.3992546  0.5188632  0.5582650    0.00000       Uiso       1.00
       C24          C  0.4118520  0.5400316  0.5528587    0.00000       Uiso       1.00
       H13          H  0.5937833  0.5497451  0.5911990    0.00000       Uiso       1.00
       H14          H  0.5937837  0.3524328  0.5994269    0.00000       Uiso       1.00
       C25          C  0.5000001  0.4999996  0.5000005    0.00000       Uiso       1.00
       H15          H  0.3679266  0.5110584  0.5737305    0.00000       Uiso       1.00
       H16          H  0.3679264  0.6095288  0.5696243    0.00000       Uiso       1.00
       C26          C  0.4351363  0.5357141  0.3942688    0.00000       Uiso       1.00
       C27          C  0.4563774  0.5021878  0.4073524    0.00000       Uiso       1.00
       C28          C  0.4776751  0.4903963  0.4407274    0.00000       Uiso       1.00
       C29          C  0.4360235  0.5572478  0.4154029    0.00000       Uiso       1.00
       C30          C  0.4576181  0.5457210  0.4484219    0.00000       Uiso       1.00
       C31          C  0.4790327  0.5120841  0.4619492    0.00000       Uiso       1.00
       H17          H  0.5428078  0.4674744  0.4808978    0.00000       Uiso       1.00
       H18          H  0.5076227  0.5461832  0.4600017    0.00000       Uiso       1.00
       H19          H  0.4194775  0.5829219  0.4069075    0.00000       Uiso       1.00
       H20          H  0.4564514  0.4848854  0.3918115    0.00000       Uiso       1.00
       C32          C  0.5648650  0.3942868  0.5352641    0.00000       Uiso       1.00
       C33          C  0.5639829  0.4173302  0.5110448    0.00000       Uiso       1.00
       C34          C  0.5423860  0.4503653  0.4991185    0.00000       Uiso       1.00
       C35          C  0.5436203  0.4054635  0.5474180    0.00000       Uiso       1.00
       C36          C  0.5223235  0.4388228  0.5360175    0.00000       Uiso       1.00
       C37          C  0.5209684  0.4619860  0.5111812    0.00000       Uiso       1.00
       H21          H  0.4923764  0.4640247  0.4496817    0.00000       Uiso       1.00
       H22          H  0.4571951  0.4798242  0.4931442    0.00000       Uiso       1.00
       H23          H  0.5435403  0.3884239  0.5660008    0.00000       Uiso       1.00
       H24          H  0.5805343  0.4102851  0.5018829    0.00000       Uiso       1.00
       C38          C  0.5648646  0.5408480  0.5296013    0.00000       Uiso       1.00
       C39          C  0.5639789  0.5186911  0.5529395    0.00000       Uiso       1.00
       C40          C  0.5423830  0.5072515  0.5432682    0.00000       Uiso       1.00
       C41          C  0.5436233  0.5509107  0.4962008    0.00000       Uiso       1.00
       C42          C  0.5223261  0.5388492  0.4863053    0.00000       Uiso       1.00
       C43          C  0.5209679  0.5170452  0.5097873    0.00000       Uiso       1.00
       H25          H  0.4923762  0.5435985  0.5426974    0.00000       Uiso       1.00
       H26          H  0.4571963  0.5629803  0.4640523    0.00000       Uiso       1.00
       H27          H  0.5435450  0.5680254  0.4775352    0.00000       Uiso       1.00
       H28          H  0.5805255  0.5091904  0.5786552    0.00000       Uiso       1.00
       C44          C  0.4351355  0.5291511  0.5408678    0.00000       Uiso       1.00
       C45          C  0.4563775  0.5414351  0.5490266    0.00000       Uiso       1.00
       C46          C  0.4776743  0.5319289  0.5369483    0.00000       Uiso       1.00
       C47          C  0.4360204  0.5067338  0.5206178    0.00000       Uiso       1.00
       C48          C  0.4576163  0.4966629  0.5091951    0.00000       Uiso       1.00
       C49          C  0.4790319  0.5088834  0.5170841    0.00000       Uiso       1.00
       H29          H  0.5428020  0.4897233  0.5619107    0.00000       Uiso       1.00
       H30          H  0.5076178  0.4461927  0.5476149    0.00000       Uiso       1.00
       H31          H  0.4194719  0.4976094  0.5125675    0.00000       Uiso       1.00
       H32          H  0.4564553  0.5586606  0.5646446    0.00000       Uiso       1.00
       C50          C  0.1344781  0.6885941  0.6773294    0.00000       Uiso       1.00
       C51          C  0.1231067  0.7208297  0.6813973    0.00000       Uiso       1.00
       C52          C  0.1007451  0.7311357  0.6917363    0.00000       Uiso       1.00
       C53          C  0.1231065  0.6668229  0.6836494    0.00000       Uiso       1.00
       C54          C  0.1007450  0.6770839  0.6939903    0.00000       Uiso       1.00
       C55          C  0.0881476  0.7099675  0.6971427    0.00000       Uiso       1.00
       H33          H  0.9062160  0.8975673  0.6505735    0.00000       Uiso       1.00
       H34          H  0.9062154  0.7002555  0.6588016    0.00000       Uiso       1.00
       H35          H  0.1320730  0.6404699  0.6803773    0.00000       Uiso       1.00
       H36          H  0.1320734  0.7389400  0.6762710    0.00000       Uiso       1.00
       C56          C  0.8655213  0.9571504  0.6769263    0.00000       Uiso       1.00
       C57          C  0.8768929  0.9417109  0.6560624    0.00000       Uiso       1.00
       C58          C  0.8992542  0.9090102  0.6681182    0.00000       Uiso       1.00
       C59          C  0.8768926  0.9394591  0.7100692    0.00000       Uiso       1.00
       C60          C  0.8992539  0.9067565  0.7221698    0.00000       Uiso       1.00
       C61          C  0.9118515  0.8910065  0.7018839    0.00000       Uiso       1.00
       H37          H  0.0937835  0.7556422  0.6962173    0.00000       Uiso       1.00
       H38          H  0.0937824  0.7474152  0.8935289    0.00000       Uiso       1.00
       H39          H  0.8679259  0.9516979  0.7274554    0.00000       Uiso       1.00
       H40          H  0.8679265  0.9558037  0.6289855    0.00000       Uiso       1.00
       C62          C  0.8655203  0.6773295  0.6885952    0.00000       Uiso       1.00
       C63          C  0.8768917  0.6813976  0.7208306    0.00000       Uiso       1.00
       C64          C  0.8992532  0.6917366  0.7311364    0.00000       Uiso       1.00
       C65          C  0.8768920  0.6836494  0.6668239    0.00000       Uiso       1.00
       C66          C  0.8992535  0.6939902  0.6770847    0.00000       Uiso       1.00
       C67          C  0.9118508  0.6971428  0.7099681    0.00000       Uiso       1.00
       H41          H  0.0937821  0.6505740  0.8975673    0.00000       Uiso       1.00
       H42          H  0.0937831  0.6588008  0.7002558    0.00000       Uiso       1.00
       H43          H  0.8679255  0.6803771  0.6404710    0.00000       Uiso       1.00
       H44          H  0.8679249  0.6762715  0.7389410    0.00000       Uiso       1.00
       C68          C  0.1344765  0.6769271  0.9571499    0.00000       Uiso       1.00
       C69          C  0.1231051  0.6560631  0.9417106    0.00000       Uiso       1.00
       C70          C  0.1007438  0.6681187  0.9090100    0.00000       Uiso       1.00
       C71          C  0.1231052  0.7100699  0.9394585    0.00000       Uiso       1.00
       C72          C  0.1007440  0.7221705  0.9067560    0.00000       Uiso       1.00
       C73          C  0.0881465  0.7018844  0.8910062    0.00000       Uiso       1.00
       H45          H  0.9062148  0.6962178  0.7556428    0.00000       Uiso       1.00
       H46          H  0.9062155  0.8935295  0.7474147    0.00000       Uiso       1.00
       C74          C  0.9999989  0.7500005  0.7500002    0.00000       Uiso       1.00
       H47          H  0.1320718  0.7274562  0.9516972    0.00000       Uiso       1.00
       H48          H  0.1320715  0.6289861  0.9558035    0.00000       Uiso       1.00
       C75          C  0.0648635  0.7203977  0.7091515    0.00000       Uiso       1.00
       C76          C  0.0436224  0.7537980  0.6990888    0.00000       Uiso       1.00
       C77          C  0.0223247  0.7636952  0.7111499    0.00000       Uiso       1.00
       C78          C  0.0639760  0.6970590  0.7313066    0.00000       Uiso       1.00
       C79          C  0.0423812  0.7067320  0.7427472    0.00000       Uiso       1.00
       C80          C  0.0209668  0.7402134  0.7329541    0.00000       Uiso       1.00
       H49          H  0.9571916  0.7859486  0.6870195    0.00000       Uiso       1.00
       H50          H  0.9923763  0.7073029  0.7064030    0.00000       Uiso       1.00
       H51          H  0.0805219  0.6713428  0.7408101    0.00000       Uiso       1.00
       H52          H  0.0435487  0.7724620  0.6819773    0.00000       Uiso       1.00
       C81          C  0.9351344  0.8557323  0.7142863    0.00000       Uiso       1.00
       C82          C  0.9360166  0.8345966  0.6927547    0.00000       Uiso       1.00
       C83          C  0.9576133  0.8015782  0.7042792    0.00000       Uiso       1.00
       C84          C  0.9563789  0.8426508  0.7478106    0.00000       Uiso       1.00
       C85          C  0.9776756  0.8092752  0.7596017    0.00000       Uiso       1.00
       C86          C  0.9790308  0.7880518  0.7379150    0.00000       Uiso       1.00
       H53          H  0.0076234  0.7899991  0.7038192    0.00000       Uiso       1.00
       H54          H  0.0428043  0.7691052  0.7825260    0.00000       Uiso       1.00
       H55          H  0.9564588  0.8581942  0.7651113    0.00000       Uiso       1.00
       H56          H  0.9194653  0.8430943  0.6670835    0.00000       Uiso       1.00
       C87          C  0.9351339  0.7091340  0.7208484    0.00000       Uiso       1.00
       C88          C  0.9360197  0.7293829  0.7432672    0.00000       Uiso       1.00
       C89          C  0.9576157  0.7408056  0.7533379    0.00000       Uiso       1.00
       C90          C  0.9563755  0.7009761  0.7085636    0.00000       Uiso       1.00
       C91          C  0.9776727  0.7130537  0.7180706    0.00000       Uiso       1.00
       C92          C  0.9790309  0.7329175  0.7411165    0.00000       Uiso       1.00
       H57          H  0.0076225  0.7023777  0.8038068    0.00000       Uiso       1.00
       H58          H  0.0428027  0.6880901  0.7602789    0.00000       Uiso       1.00
       H59          H  0.9564537  0.6853580  0.6913379    0.00000       Uiso       1.00
       H60          H  0.9194729  0.7374308  0.7523943    0.00000       Uiso       1.00
       C93          C  0.0648632  0.7147366  0.8557132    0.00000       Uiso       1.00
       C94          C  0.0436211  0.7025787  0.8445349    0.00000       Uiso       1.00
       C95          C  0.0223244  0.7139796  0.8111761    0.00000       Uiso       1.00
       C96          C  0.0639786  0.7389591  0.8326704    0.00000       Uiso       1.00
       C97          C  0.0423828  0.7508839  0.7996352    0.00000       Uiso       1.00
       C98          C  0.0209671  0.7388191  0.7880141    0.00000       Uiso       1.00
       H61          H  0.9571966  0.7568542  0.7701787    0.00000       Uiso       1.00
       H62          H  0.9923812  0.8003221  0.7859722    0.00000       Uiso       1.00
       H63          H  0.0805272  0.7481252  0.8397160    0.00000       Uiso       1.00
       H64          H  0.0435430  0.6839916  0.8615716    0.00000       Uiso       1.00
       C99          C  0.7032059  0.6045069  0.5823748    0.00000       Uiso       1.00
      C100          C  0.7255986  0.6148674  0.5894989    0.00000       Uiso       1.00
      C101          C  0.7351079  0.6203995  0.5653594    0.00000       Uiso       1.00
        N1          N  0.6574899  0.5832372  0.5706791    0.00000       Uiso       1.00
      C102          C  0.7387266  0.6197888  0.6213213    0.00000       Uiso       1.00
      C103          C  0.6937559  0.5989958  0.6066880    0.00000       Uiso       1.00
      C104          C  0.6701990  0.5880783  0.5996381    0.00000       Uiso       1.00
       H65          H  0.6636555  0.5841509  0.6191390    0.00000       Uiso       1.00
       H66          H  0.7252581  0.6167348  0.5408141    0.00000       Uiso       1.00
      C105          C  0.7930713  0.6460543  0.6117065    0.00000       Uiso       1.00
      C106          C  0.7706564  0.6356990  0.6042041    0.00000       Uiso       1.00
       H67          H  0.8003068  0.6502810  0.5929282    0.00000       Uiso       1.00
      C107          C  0.7574495  0.6307287  0.5726512    0.00000       Uiso       1.00
        N2          N  0.8425084  0.6667640  0.6793213    0.00000       Uiso       1.00
      C108          C  0.7612720  0.6302121  0.6286793    0.00000       Uiso       1.00
      C109          C  0.8062425  0.6510051  0.6433125    0.00000       Uiso       1.00
      C110          C  0.8297993  0.6619228  0.6503624    0.00000       Uiso       1.00
       H68          H  0.8363428  0.6658502  0.6308615    0.00000       Uiso       1.00
       H69          H  0.7644045  0.6348333  0.5535921    0.00000       Uiso       1.00
      C111          C  0.7967927  0.6454937  0.6676258    0.00000       Uiso       1.00
      C112          C  0.7744000  0.6351333  0.6605017    0.00000       Uiso       1.00
      C113          C  0.7648910  0.6296009  0.6846414    0.00000       Uiso       1.00
       H70          H  0.7747409  0.6332653  0.7091867    0.00000       Uiso       1.00
      C114          C  0.7069272  0.6039466  0.6382940    0.00000       Uiso       1.00
      C115          C  0.7293421  0.6143017  0.6457965    0.00000       Uiso       1.00
       H71          H  0.6996916  0.5997200  0.6570724    0.00000       Uiso       1.00
      C116          C  0.7425492  0.6192718  0.6773494    0.00000       Uiso       1.00
       H72          H  0.7355944  0.6151669  0.6964086    0.00000       Uiso       1.00
      C117          C  0.7032067  0.1922869  0.6208323    0.00000       Uiso       1.00
      C118          C  0.7255995  0.1595337  0.6361009    0.00000       Uiso       1.00
      C119          C  0.7351087  0.1444924  0.6697497    0.00000       Uiso       1.00
        N3          N  0.6574905  0.2592726  0.5868119    0.00000       Uiso       1.00
      C120          C  0.7387276  0.1414844  0.6174065    0.00000       Uiso       1.00
      C121          C  0.6937568  0.2072479  0.5870692    0.00000       Uiso       1.00
      C122          C  0.6701999  0.2417222  0.5705622    0.00000       Uiso       1.00
       H73          H  0.6636564  0.2521933  0.5445178    0.00000       Uiso       1.00
       H74          H  0.7252588  0.1580069  0.6844451    0.00000       Uiso       1.00
      C123          C  0.7930723  0.0608742  0.6813660    0.00000       Uiso       1.00
      C124          C  0.7706574  0.0936443  0.6664536    0.00000       Uiso       1.00
       H75          H  0.8003079  0.0494120  0.7073798    0.00000       Uiso       1.00
      C125          C  0.7574504  0.1118215  0.6847995    0.00000       Uiso       1.00
        N4          N  0.8425097  0.9907278  0.6631884    0.00000       Uiso       1.00
      C126          C  0.7612731  0.1085156  0.6325939    0.00000       Uiso       1.00
      C127          C  0.8062437  0.0427521  0.6629313    0.00000       Uiso       1.00
      C128          C  0.8298006  0.0082777  0.6794382    0.00000       Uiso       1.00
       H76          H  0.8363439  0.9978071  0.7054826    0.00000       Uiso       1.00
       H77          H  0.7644053  0.1007621  0.7108134    0.00000       Uiso       1.00
      C129          C  0.7967941  0.0577132  0.6291683    0.00000       Uiso       1.00
      C130          C  0.7744012  0.0904664  0.6138996    0.00000       Uiso       1.00
      C131          C  0.7648922  0.1055078  0.5802510    0.00000       Uiso       1.00
       H78          H  0.7747424  0.0919934  0.5655556    0.00000       Uiso       1.00
      C132          C  0.7069282  0.1891258  0.5686345    0.00000       Uiso       1.00
      C133          C  0.7293432  0.1563557  0.5835469    0.00000       Uiso       1.00
       H79          H  0.6996927  0.2005880  0.5426205    0.00000       Uiso       1.00
      C134          C  0.7425504  0.1381787  0.5652010    0.00000       Uiso       1.00
       H80          H  0.7355958  0.1492382  0.5391873    0.00000       Uiso       1.00
      C135          C  0.2967934  0.5823739  0.6045071    0.00000       Uiso       1.00
      C136          C  0.2744005  0.5894980  0.6148676    0.00000       Uiso       1.00
      C137          C  0.2648914  0.5653583  0.6203997    0.00000       Uiso       1.00
        N5          N  0.3425095  0.5706783  0.5832375    0.00000       Uiso       1.00
      C138          C  0.2612724  0.6213203  0.6197889    0.00000       Uiso       1.00
      C139          C  0.3062432  0.6066872  0.5989960    0.00000       Uiso       1.00
      C140          C  0.3298002  0.5996373  0.5880786    0.00000       Uiso       1.00
       H81          H  0.3363437  0.6191382  0.5841512    0.00000       Uiso       1.00
       H82          H  0.2747412  0.5408130  0.6167349    0.00000       Uiso       1.00
      C141          C  0.2069277  0.6117055  0.6460543    0.00000       Uiso       1.00
      C142          C  0.2293426  0.6042030  0.6356990    0.00000       Uiso       1.00
       H83          H  0.1996921  0.5929271  0.6502810    0.00000       Uiso       1.00
      C143          C  0.2425496  0.5726501  0.6307288    0.00000       Uiso       1.00
        N6          N  0.1574901  0.6793203  0.6667639    0.00000       Uiso       1.00
      C144          C  0.2387270  0.6286784  0.6302122    0.00000       Uiso       1.00
      C145          C  0.1937563  0.6433116  0.6510051    0.00000       Uiso       1.00
      C146          C  0.1701994  0.6503613  0.6619227    0.00000       Uiso       1.00
       H84          H  0.1636559  0.6308604  0.6658502    0.00000       Uiso       1.00
       H85          H  0.2355947  0.5535911  0.6348333    0.00000       Uiso       1.00
      C147          C  0.2032059  0.6676250  0.6454937    0.00000       Uiso       1.00
      C148          C  0.2255988  0.6605008  0.6351333    0.00000       Uiso       1.00
      C149          C  0.2351077  0.6846405  0.6296010    0.00000       Uiso       1.00
       H86          H  0.2252577  0.7091859  0.6332654    0.00000       Uiso       1.00
      C150          C  0.2930718  0.6382932  0.6039469    0.00000       Uiso       1.00
      C151          C  0.2706568  0.6457957  0.6143020    0.00000       Uiso       1.00
       H87          H  0.3003074  0.6570716  0.5997203    0.00000       Uiso       1.00
      C152          C  0.2574496  0.6773486  0.6192719    0.00000       Uiso       1.00
       H88          H  0.2644043  0.6964078  0.6151671    0.00000       Uiso       1.00
      C153          C  0.2967942  0.6208316  0.1922880    0.00000       Uiso       1.00
      C154          C  0.2744014  0.6361003  0.1595348    0.00000       Uiso       1.00
      C155          C  0.2648922  0.6697491  0.1444935    0.00000       Uiso       1.00
        N7          N  0.3425102  0.5868112  0.2592736    0.00000       Uiso       1.00
      C156          C  0.2612735  0.6174059  0.1414855    0.00000       Uiso       1.00
      C157          C  0.3062441  0.5870684  0.2072489    0.00000       Uiso       1.00
      C158          C  0.3298010  0.5705615  0.2417232    0.00000       Uiso       1.00
       H89          H  0.3363446  0.5445170  0.2521942    0.00000       Uiso       1.00
       H90          H  0.2747419  0.6844446  0.1580080    0.00000       Uiso       1.00
      C159          C  0.2069288  0.6813654  0.0608754    0.00000       Uiso       1.00
      C160          C  0.2293436  0.6664530  0.0936455    0.00000       Uiso       1.00
       H91          H  0.1996932  0.7073793  0.0494132    0.00000       Uiso       1.00
      C161          C  0.2425505  0.6847990  0.1118226    0.00000       Uiso       1.00
        N8          N  0.1574924  0.6631870  0.9907294    0.00000       Uiso       1.00
      C162          C  0.2387281  0.6325932  0.1085168    0.00000       Uiso       1.00
      C163          C  0.1937576  0.6629306  0.0427533    0.00000       Uiso       1.00
      C164          C  0.1702008  0.6794375  0.0082789    0.00000       Uiso       1.00
       H92          H  0.1636580  0.7054812  0.9978089    0.00000       Uiso       1.00
       H93          H  0.2355956  0.7108129  0.1007632    0.00000       Uiso       1.00
      C165          C  0.2032073  0.6291676  0.0577143    0.00000       Uiso       1.00
      C166          C  0.2256001  0.6138989  0.0904675    0.00000       Uiso       1.00
      C167          C  0.2351092  0.5802502  0.1055089    0.00000       Uiso       1.00
       H94          H  0.2252592  0.5655548  0.0919945    0.00000       Uiso       1.00
      C168          C  0.2930728  0.5686337  0.1891268    0.00000       Uiso       1.00
      C169          C  0.2706580  0.5835461  0.1563568    0.00000       Uiso       1.00
       H95          H  0.3003085  0.5426198  0.2005890    0.00000       Uiso       1.00
      C170          C  0.2574509  0.5652003  0.1381797    0.00000       Uiso       1.00
       H96          H  0.2644056  0.5391864  0.1492392    0.00000       Uiso       1.00
      C171          C  0.8111622  0.6508716  0.7026613    0.00000       Uiso       1.00
       H97          H  0.7963759  0.6677752  0.7065387    0.00000       Uiso       1.00
       H98          H  0.8260184  0.6578386  0.7036561    0.00000       Uiso       1.00
       H99          H  0.8199782  0.6303268  0.7194544    0.00000       Uiso       1.00
      C172          C  0.6888365  0.5991288  0.5473394    0.00000       Uiso       1.00
      H100          H  0.6799442  0.6196989  0.5305537    0.00000       Uiso       1.00
      H101          H  0.6740415  0.5920652  0.5463779    0.00000       Uiso       1.00
      H102          H  0.7036383  0.5822963  0.5434214    0.00000       Uiso       1.00
      C173          C  0.8111637  0.0379657  0.6085023    0.00000       Uiso       1.00
      H103          H  0.7963775  0.0358484  0.5898387    0.00000       Uiso       1.00
      H104          H  0.8260199  0.0161426  0.6223637    0.00000       Uiso       1.00
      H105          H  0.8199797  0.0496947  0.6005251    0.00000       Uiso       1.00
      C174          C  0.6888372  0.2120345  0.6414983    0.00000       Uiso       1.00
      H106          H  0.6799449  0.2003566  0.6493917    0.00000       Uiso       1.00
      H107          H  0.6740420  0.2338931  0.6276647    0.00000       Uiso       1.00
      H108          H  0.7036389  0.2140652  0.6602180    0.00000       Uiso       1.00
      C175          C  0.1888363  0.7026604  0.6508716    0.00000       Uiso       1.00
      H109          H  0.2036225  0.7065378  0.6677752    0.00000       Uiso       1.00
      H110          H  0.1739801  0.7036552  0.6578386    0.00000       Uiso       1.00
      H111          H  0.1800204  0.7194535  0.6303269    0.00000       Uiso       1.00
      C176          C  0.3111628  0.5473384  0.5991290    0.00000       Uiso       1.00
      H112          H  0.3200552  0.5305527  0.6196991    0.00000       Uiso       1.00
      H113          H  0.3259580  0.5463769  0.5920655    0.00000       Uiso       1.00
      H114          H  0.2963611  0.5434204  0.5822966    0.00000       Uiso       1.00
      C177          C  0.1888378  0.6085016  0.0379669    0.00000       Uiso       1.00
      H115          H  0.2036241  0.5898380  0.0358496    0.00000       Uiso       1.00
      H116          H  0.1739817  0.6223629  0.0161438    0.00000       Uiso       1.00
      H117          H  0.1800219  0.6005243  0.0496958    0.00000       Uiso       1.00
      C178          C  0.3111635  0.6414977  0.2120355    0.00000       Uiso       1.00
      H118          H  0.3200558  0.6493911  0.2003576    0.00000       Uiso       1.00
      H119          H  0.3259586  0.6276641  0.2338941    0.00000       Uiso       1.00
      H120          H  0.2963617  0.6602174  0.2140662    0.00000       Uiso       1.00
