data_42
_audit_creation_date              0000-00-00
_audit_creation_method            'LanYouShi'
_symmetry_space_group_name_H-M    'P1'
_cell_length_a                    50.7756996
_cell_length_b                    43.9878006
_cell_length_c                    36.8874016
_cell_angle_alpha                 86.1092987
_cell_angle_beta                  109.4400024
_cell_angle_gamma                 65.8712997
loop_
_atom_site_label
_atom_site_type_symbol
_atom_site_fract_x
_atom_site_fract_y
_atom_site_fract_z
_atom_site_U_iso_or_equiv
_atom_site_adp_type
_atom_site_occupancy
        C1          C  0.3577759  0.5885334  0.2582919    0.00000       Uiso       1.00
        C2          C  0.3698645  0.5538919  0.2757967    0.00000       Uiso       1.00
        C3          C  0.3935297  0.5393578  0.3138842    0.00000       Uiso       1.00
        C4          C  0.3697575  0.6084314  0.2793708    0.00000       Uiso       1.00
        C5          C  0.3934227  0.5939428  0.3174613    0.00000       Uiso       1.00
        C6          C  0.4068222  0.5586615  0.3352664    0.00000       Uiso       1.00
        H1          H  0.6007054  0.3562271  0.4859904    0.00000       Uiso       1.00
        H2          H  0.6003144  0.5554852  0.4990483    0.00000       Uiso       1.00
        H3          H  0.3602245  0.6367075  0.2655051    0.00000       Uiso       1.00
        H4          H  0.3604196  0.5372662  0.2589885    0.00000       Uiso       1.00
        C7          C  0.6437706  0.2870413  0.5637379    0.00000       Uiso       1.00
        C8          C  0.6318602  0.3073436  0.5257233    0.00000       Uiso       1.00
        C9          C  0.6079573  0.3409966  0.5149822    0.00000       Uiso       1.00
       C10          C  0.6313702  0.3008335  0.5908473    0.00000       Uiso       1.00
       C11          C  0.6074669  0.3344810  0.5801604    0.00000       Uiso       1.00
       C12          C  0.5942492  0.3551348  0.5414333    0.00000       Uiso       1.00
        H5          H  0.4009203  0.5129746  0.3269240    0.00000       Uiso       1.00
        H6          H  0.3991303  0.4891901  0.5648521    0.00000       Uiso       1.00
        H7          H  0.6407534  0.2846068  0.6219479    0.00000       Uiso       1.00
        H8          H  0.6416468  0.2964767  0.5032079    0.00000       Uiso       1.00
       C13          C  0.6432160  0.5696223  0.5822562    0.00000       Uiso       1.00
       C14          C  0.6308588  0.5614405  0.6079255    0.00000       Uiso       1.00
       C15          C  0.6070408  0.5516220  0.5943903    0.00000       Uiso       1.00
       C16          C  0.6313487  0.5679507  0.5428016    0.00000       Uiso       1.00
       C17          C  0.6075311  0.5581375  0.5292120    0.00000       Uiso       1.00
       C18          C  0.5938650  0.5509109  0.5542630    0.00000       Uiso       1.00
        H9          H  0.3989383  0.5869867  0.5712609    0.00000       Uiso       1.00
       H10          H  0.4007283  0.6107711  0.3333328    0.00000       Uiso       1.00
       H11          H  0.6411009  0.5746201  0.5214354    0.00000       Uiso       1.00
       H12          H  0.6402075  0.5627502  0.6401753    0.00000       Uiso       1.00
       C19          C  0.3552373  0.5548030  0.5957134    0.00000       Uiso       1.00
       C20          C  0.3674163  0.5773240  0.5905539    0.00000       Uiso       1.00
       C21          C  0.3914720  0.5680237  0.5767428    0.00000       Uiso       1.00
       C22          C  0.3675233  0.5227845  0.5869798    0.00000       Uiso       1.00
       C23          C  0.3915791  0.5134388  0.5731657    0.00000       Uiso       1.00
       C24          C  0.4050634  0.5352927  0.5690368    0.00000       Uiso       1.00
       H13          H  0.5994358  0.5438117  0.6158242    0.00000       Uiso       1.00
       H14          H  0.5998268  0.3445536  0.6027663    0.00000       Uiso       1.00
       C25          C  0.5000000  0.4999998  0.4999998    0.00000       Uiso       1.00
       H15          H  0.3579209  0.5040655  0.5911111    0.00000       Uiso       1.00
       H16          H  0.3577258  0.6035069  0.5976278    0.00000       Uiso       1.00
       C26          C  0.4314521  0.5436313  0.3764284    0.00000       Uiso       1.00
       C27          C  0.4541488  0.5090611  0.3882683    0.00000       Uiso       1.00
       C28          C  0.4766685  0.4947750  0.4272107    0.00000       Uiso       1.00
       C29          C  0.4321572  0.5636548  0.4045244    0.00000       Uiso       1.00
       C30          C  0.4549975  0.5496661  0.4430653    0.00000       Uiso       1.00
       C31          C  0.4778759  0.5149513  0.4554286    0.00000       Uiso       1.00
       H17          H  0.5460751  0.4691738  0.4728974    0.00000       Uiso       1.00
       H18          H  0.5084172  0.5497036  0.4569287    0.00000       Uiso       1.00
       H19          H  0.4144629  0.5900061  0.3973036    0.00000       Uiso       1.00
       H20          H  0.4544113  0.4928665  0.3674338    0.00000       Uiso       1.00
       C32          C  0.5693606  0.3914455  0.5300881    0.00000       Uiso       1.00
       C33          C  0.5685839  0.4165350  0.5034576    0.00000       Uiso       1.00
       C34          C  0.5454970  0.4505165  0.4929632    0.00000       Uiso       1.00
       C35          C  0.5464814  0.4015361  0.5461963    0.00000       Uiso       1.00
       C36          C  0.5237102  0.4358055  0.5363750    0.00000       Uiso       1.00
       C37          C  0.5224326  0.4610595  0.5090134    0.00000       Uiso       1.00
       H21          H  0.4923856  0.4676679  0.4349132    0.00000       Uiso       1.00
       H22          H  0.4542903  0.4798176  0.4895250    0.00000       Uiso       1.00
       H23          H  0.5462657  0.3829235  0.5667071    0.00000       Uiso       1.00
       H24          H  0.5864018  0.4103229  0.4914736    0.00000       Uiso       1.00
       C38          C  0.5690659  0.5394167  0.5403306    0.00000       Uiso       1.00
       C39          C  0.5679560  0.5152718  0.5660053    0.00000       Uiso       1.00
       C40          C  0.5449546  0.5043085  0.5530524    0.00000       Uiso       1.00
       C41          C  0.5466107  0.5519652  0.5011556    0.00000       Uiso       1.00
       C42          C  0.5239325  0.5403964  0.4878574    0.00000       Uiso       1.00
       C43          C  0.5223148  0.5165908  0.5137492    0.00000       Uiso       1.00
       H25          H  0.4913446  0.5404577  0.5568120    0.00000       Uiso       1.00
       H26          H  0.4543619  0.5658069  0.4640046    0.00000       Uiso       1.00
       H27          H  0.5466576  0.5706583  0.4805539    0.00000       Uiso       1.00
       H28          H  0.5854549  0.5038477  0.5959616    0.00000       Uiso       1.00
       C44          C  0.4301227  0.5255072  0.5531521    0.00000       Uiso       1.00
       C45          C  0.4527572  0.5374358  0.5643739    0.00000       Uiso       1.00
       C46          C  0.4756874  0.5290212  0.5485519    0.00000       Uiso       1.00
       C47          C  0.4313085  0.5045417  0.5260161    0.00000       Uiso       1.00
       C48          C  0.4545542  0.4955101  0.5109208    0.00000       Uiso       1.00
       C49          C  0.4773772  0.5073978  0.5218077    0.00000       Uiso       1.00
       H29          H  0.5452736  0.4852042  0.5735765    0.00000       Uiso       1.00
       H30          H  0.5078448  0.4421710  0.5513377    0.00000       Uiso       1.00
       H31          H  0.4136897  0.4958303  0.5152746    0.00000       Uiso       1.00
       H32          H  0.4526566  0.5535483  0.5852920    0.00000       Uiso       1.00
       C50          C  0.1633731  0.6843231  0.6593742    0.00000       Uiso       1.00
       C51          C  0.1515284  0.7162759  0.6683973    0.00000       Uiso       1.00
       C52          C  0.1280632  0.7255730  0.6832395    0.00000       Uiso       1.00
       C53          C  0.1513498  0.6618190  0.6652884    0.00000       Uiso       1.00
       C54          C  0.1278845  0.6710707  0.6801280    0.00000       Uiso       1.00
       C55          C  0.1147264  0.7037396  0.6881588    0.00000       Uiso       1.00
       H33          H  0.9218315  0.8944774  0.6601673    0.00000       Uiso       1.00
       H34          H  0.9211790  0.6955212  0.6488089    0.00000       Uiso       1.00
       H35          H  0.1606845  0.6356899  0.6579930    0.00000       Uiso       1.00
       H36          H  0.1610102  0.7349805  0.6636614    0.00000       Uiso       1.00
       C56          C  0.8794332  0.9517982  0.7008417    0.00000       Uiso       1.00
       C57          C  0.8910372  0.9381166  0.6730775    0.00000       Uiso       1.00
       C58          C  0.9148234  0.9044580  0.6832234    0.00000       Uiso       1.00
       C59          C  0.8920220  0.9313738  0.7389602    0.00000       Uiso       1.00
       C60          C  0.9158090  0.8977097  0.7491609    0.00000       Uiso       1.00
       C61          C  0.9287215  0.8836792  0.7220125    0.00000       Uiso       1.00
       H37          H  0.1208679  0.7497644  0.6917192    0.00000       Uiso       1.00
       H38          H  0.1244660  0.7251303  0.9324191    0.00000       Uiso       1.00
       H39          H  0.8828896  0.9421495  0.7620041    0.00000       Uiso       1.00
       H40          H  0.8810939  0.9544433  0.6418809    0.00000       Uiso       1.00
       C62          C  0.8785079  0.6696454  0.6847336    0.00000       Uiso       1.00
       C63          C  0.8911687  0.6711617  0.7241048    0.00000       Uiso       1.00
       C64          C  0.9150979  0.6808978  0.7367833    0.00000       Uiso       1.00
       C65          C  0.8901839  0.6779044  0.6582221    0.00000       Uiso       1.00
       C66          C  0.9141123  0.6876462  0.6708457    0.00000       Uiso       1.00
       C67          C  0.9280804  0.6881998  0.7108525    0.00000       Uiso       1.00
       H41          H  0.1241457  0.6274819  0.9268444    0.00000       Uiso       1.00
       H42          H  0.1205477  0.6521161  0.6861445    0.00000       Uiso       1.00
       H43          H  0.8801832  0.6767215  0.6260259    0.00000       Uiso       1.00
       H44          H  0.8819788  0.6644275  0.7461491    0.00000       Uiso       1.00
       C68          C  0.1684755  0.6493871  0.0007271    0.00000       Uiso       1.00
       C69          C  0.1560557  0.6296002  0.9800966    0.00000       Uiso       1.00
       C70          C  0.1318054  0.6442257  0.9424300    0.00000       Uiso       1.00
       C71          C  0.1562342  0.6840572  0.9832056    0.00000       Uiso       1.00
       C72          C  0.1319842  0.6987280  0.9455415    0.00000       Uiso       1.00
       C73          C  0.1182616  0.6795359  0.9246524    0.00000       Uiso       1.00
       H45          H  0.9229450  0.6834307  0.7669453    0.00000       Uiso       1.00
       H46          H  0.9235973  0.8823869  0.7783037    0.00000       Uiso       1.00
       C74          C  0.0224478  0.7387888  0.7614190    0.00000       Uiso       1.00
       H47          H  0.1660326  0.7005938  0.9996533    0.00000       Uiso       1.00
       H48          H  0.1657070  0.6013031  0.9939847    0.00000       Uiso       1.00
       C75          C  0.0903148  0.7130147  0.7051029    0.00000       Uiso       1.00
       C76          C  0.0677554  0.7472212  0.6974200    0.00000       Uiso       1.00
       C77          C  0.0454476  0.7559741  0.7142757    0.00000       Uiso       1.00
       C78          C  0.0896872  0.6877165  0.7297372    0.00000       Uiso       1.00
       C79          C  0.0670523  0.6962931  0.7458230    0.00000       Uiso       1.00
       C80          C  0.0443144  0.7305569  0.7384872    0.00000       Uiso       1.00
       H49          H  0.9760691  0.7797508  0.6902442    0.00000       Uiso       1.00
       H50          H  0.0133934  0.6994308  0.7037619    0.00000       Uiso       1.00
       H51          H  0.1072919  0.6612356  0.7377933    0.00000       Uiso       1.00
       H52          H  0.0674382  0.7673948  0.6784991    0.00000       Uiso       1.00
       C81          C  0.9534801  0.8474141  0.7322595    0.00000       Uiso       1.00
       C82          C  0.9539326  0.8279693  0.7035578    0.00000       Uiso       1.00
       C83          C  0.9768974  0.7940286  0.7130551    0.00000       Uiso       1.00
       C84          C  0.9765579  0.8316793  0.7708763    0.00000       Uiso       1.00
       C85          C  0.9992082  0.7973548  0.7806756    0.00000       Uiso       1.00
       C86          C  0.0001594  0.7778392  0.7517520    0.00000       Uiso       1.00
       H53          H  0.0298402  0.7828819  0.7088561    0.00000       Uiso       1.00
       H54          H  0.0684868  0.7556744  0.8012844    0.00000       Uiso       1.00
       H55          H  0.9770244  0.8458641  0.7937443    0.00000       Uiso       1.00
       H56          H  0.9359545  0.8384886  0.6738354    0.00000       Uiso       1.00
       C87          C  0.9530038  0.6995567  0.7243700    0.00000       Uiso       1.00
       C88          C  0.9544376  0.7180527  0.7539775    0.00000       Uiso       1.00
       C89          C  0.9775557  0.7288904  0.7665223    0.00000       Uiso       1.00
       C90          C  0.9752550  0.6925695  0.7074319    0.00000       Uiso       1.00
       C91          C  0.9980488  0.7041093  0.7193717    0.00000       Uiso       1.00
       C92          C  0.9999933  0.7221705  0.7496830    0.00000       Uiso       1.00
       H57          H  0.0313233  0.6865392  0.8217657    0.00000       Uiso       1.00
       H58          H  0.0677458  0.6761097  0.7652441    0.00000       Uiso       1.00
       H59          H  0.9749572  0.6783049  0.6846401    0.00000       Uiso       1.00
       H60          H  0.9371030  0.7252336  0.7668140    0.00000       Uiso       1.00
       C93          C  0.0929898  0.6951685  0.8839420    0.00000       Uiso       1.00
       C94          C  0.0702233  0.6836872  0.8699445    0.00000       Uiso       1.00
       C95          C  0.0470865  0.6977190  0.8313500    0.00000       Uiso       1.00
       C96          C  0.0917267  0.7214126  0.8584011    0.00000       Uiso       1.00
       C97          C  0.0682811  0.7359412  0.8202740    0.00000       Uiso       1.00
       C98          C  0.0453227  0.7245886  0.8057527    0.00000       Uiso       1.00
       H61          H  0.9774870  0.7436165  0.7889059    0.00000       Uiso       1.00
       H62          H  0.0152421  0.7863031  0.8112926    0.00000       Uiso       1.00
       H63          H  0.1094309  0.7301881  0.8672365    0.00000       Uiso       1.00
       H64          H  0.0703785  0.6635957  0.8887892    0.00000       Uiso       1.00
       C99          C  0.8030791  0.6317979  0.6879513    0.00000       Uiso       1.00
      C100          C  0.7817292  0.6261165  0.6604927    0.00000       Uiso       1.00
      C101          C  0.7258227  0.5959260  0.6537691    0.00000       Uiso       1.00
      C102          C  0.7431011  0.6081806  0.6434016    0.00000       Uiso       1.00
       H65          H  0.8070768  0.6267717  0.7190132    0.00000       Uiso       1.00
       H66          H  0.7284467  0.5902621  0.6842231    0.00000       Uiso       1.00
        O1          O  0.6856978  0.5783991  0.6313170    0.00000       Uiso       1.00
      C103          C  0.8197860  0.6439711  0.6765478    0.00000       Uiso       1.00
        O2          O  0.8421418  0.6510395  0.7005358    0.00000       Uiso       1.00
      C104          C  0.7048672  0.5906118  0.6257018    0.00000       Uiso       1.00
      C105          C  0.7644510  0.6138619  0.6708602    0.00000       Uiso       1.00
        O3          O  0.8348837  0.6627570  0.6331065    0.00000       Uiso       1.00
      C106          C  0.7007955  0.5971851  0.5878757    0.00000       Uiso       1.00
        O4          O  0.6784397  0.5901167  0.5638877    0.00000       Uiso       1.00
      C107          C  0.8157143  0.6505444  0.6387216    0.00000       Uiso       1.00
        B1          B  0.8510669  0.6627275  0.6723758    0.00000       Uiso       1.00
      C108          C  0.7561306  0.6272942  0.5935633    0.00000       Uiso       1.00
      C109          C  0.7175025  0.6093583  0.5764722    0.00000       Uiso       1.00
      C110          C  0.7388523  0.6150396  0.6039308    0.00000       Uiso       1.00
      C111          C  0.7947587  0.6452301  0.6106544    0.00000       Uiso       1.00
      C112          C  0.7774805  0.6329756  0.6210219    0.00000       Uiso       1.00
        B2          B  0.6695147  0.5784287  0.5920477    0.00000       Uiso       1.00
       H67          H  0.7135047  0.6143844  0.5454104    0.00000       Uiso       1.00
       H68          H  0.7921348  0.6508940  0.5802004    0.00000       Uiso       1.00
      C113          C  0.8044198  0.0647849  0.6210921    0.00000       Uiso       1.00
      C114          C  0.7827685  0.0919433  0.6266754    0.00000       Uiso       1.00
      C115          C  0.7270250  0.1778977  0.5766010    0.00000       Uiso       1.00
      C116          C  0.7440711  0.1484997  0.6044299    0.00000       Uiso       1.00
       H69          H  0.8088524  0.0656004  0.5943189    0.00000       Uiso       1.00
       H70          H  0.7300814  0.1807245  0.5490367    0.00000       Uiso       1.00
        O5          O  0.6867595  0.2355758  0.5581574    0.00000       Uiso       1.00
      C117          C  0.8208820  0.0360452  0.6493692    0.00000       Uiso       1.00
        O6          O  0.8434839  0.0065225  0.6482520    0.00000       Uiso       1.00
      C118          C  0.7057573  0.2043004  0.5831887    0.00000       Uiso       1.00
      C119          C  0.7657223  0.1213413  0.5988466    0.00000       Uiso       1.00
        O7          O  0.8352748  0.0025301  0.7078127    0.00000       Uiso       1.00
      C120          C  0.7011522  0.2020608  0.6166009    0.00000       Uiso       1.00
        O8          O  0.6785503  0.2315835  0.6177182    0.00000       Uiso       1.00
      C121          C  0.8162768  0.0338056  0.6827814    0.00000       Uiso       1.00
        B3          B  0.8519567  0.9861450  0.6852621    0.00000       Uiso       1.00
      C122          C  0.7563118  0.1167647  0.6671236    0.00000       Uiso       1.00
      C123          C  0.7176145  0.1733211  0.6448780    0.00000       Uiso       1.00
      C124          C  0.7392657  0.1461627  0.6392947    0.00000       Uiso       1.00
      C125          C  0.7950093  0.0602083  0.6893691    0.00000       Uiso       1.00
      C126          C  0.7779631  0.0896063  0.6615402    0.00000       Uiso       1.00
        B4          B  0.6700782  0.2519605  0.5807080    0.00000       Uiso       1.00
       H71          H  0.7131817  0.1725056  0.6716511    0.00000       Uiso       1.00
       H72          H  0.7919527  0.0573815  0.7169334    0.00000       Uiso       1.00
      C127          C  0.2744419  0.6417096  0.6252968    0.00000       Uiso       1.00
      C128          C  0.2472647  0.6536831  0.6330881    0.00000       Uiso       1.00
       H73          H  0.2837340  0.6591515  0.6205547    0.00000       Uiso       1.00
       H74          H  0.2372255  0.6801978  0.6342565    0.00000       Uiso       1.00
        N1          N  0.3288990  0.5654433  0.6066493    0.00000       Uiso       1.00
      C129          C  0.2338605  0.6319739  0.6386123    0.00000       Uiso       1.00
      C130          C  0.2892543  0.6077536  0.6230317    0.00000       Uiso       1.00
      C131          C  0.3162277  0.5960758  0.6118345    0.00000       Uiso       1.00
       H75          H  0.3255591  0.6134934  0.6078969    0.00000       Uiso       1.00
        N2          N  0.1907198  0.6750643  0.6507693    0.00000       Uiso       1.00
      C132          C  0.2056861  0.6442670  0.6473405    0.00000       Uiso       1.00
       H76          H  0.1975004  0.6256710  0.6509798    0.00000       Uiso       1.00
      C133          C  0.2766612  0.5857846  0.6283411    0.00000       Uiso       1.00
      C134          C  0.2494918  0.5975636  0.6361430    0.00000       Uiso       1.00
       H77          H  0.2412392  0.5790582  0.6397620    0.00000       Uiso       1.00
      C135          C  0.2781968  0.5817264  0.1471236    0.00000       Uiso       1.00
      C136          C  0.2513455  0.5967374  0.1118473    0.00000       Uiso       1.00
       H78          H  0.2874084  0.5550427  0.1612788    0.00000       Uiso       1.00
       H79          H  0.2414648  0.5801718  0.1005454    0.00000       Uiso       1.00
        N3          N  0.3318023  0.6040204  0.2207442    0.00000       Uiso       1.00
      C137          C  0.2380473  0.6317834  0.0927392    0.00000       Uiso       1.00
      C138          C  0.2927821  0.6009996  0.1643438    0.00000       Uiso       1.00
      C139          C  0.3193796  0.5859213  0.2027933    0.00000       Uiso       1.00
       H80          H  0.3286425  0.5592167  0.2161901    0.00000       Uiso       1.00
        N4          N  0.1954908  0.6314947  0.0369868    0.00000       Uiso       1.00
      C140          C  0.2102203  0.6474603  0.0555222    0.00000       Uiso       1.00
       H81          H  0.2020879  0.6742065  0.0435817    0.00000       Uiso       1.00
      C141          C  0.2802858  0.6354995  0.1462711    0.00000       Uiso       1.00
      C142          C  0.2534418  0.6506977  0.1109918    0.00000       Uiso       1.00
       H82          H  0.2452428  0.6774199  0.0990036    0.00000       Uiso       1.00
        O9          O  0.7687158  0.6069767  0.7104815    0.00000       Uiso       1.00
       H83          H  0.7544570  0.5977941  0.7150767    0.00000       Uiso       1.00
       O10          O  0.7518657  0.6341795  0.5539421    0.00000       Uiso       1.00
       H84          H  0.7351421  0.6289761  0.5356385    0.00000       Uiso       1.00
       O11          O  0.7705460  0.1236872  0.5638489    0.00000       Uiso       1.00
       H85          H  0.7564209  0.1470462  0.5448142    0.00000       Uiso       1.00
       O12          O  0.7514881  0.1144188  0.7021213    0.00000       Uiso       1.00
       H86          H  0.7345752  0.1364220  0.7033134    0.00000       Uiso       1.00
      C143          C  0.2924575  0.5481370  0.6249577    0.00000       Uiso       1.00
       H87          H  0.2989185  0.5328410  0.6495454    0.00000       Uiso       1.00
       H88          H  0.3104822  0.5441430  0.6190721    0.00000       Uiso       1.00
       H89          H  0.2777398  0.5441464  0.6041635    0.00000       Uiso       1.00
      C144          C  0.2958208  0.6574986  0.1655932    0.00000       Uiso       1.00
       H90          H  0.3025725  0.6661955  0.1477270    0.00000       Uiso       1.00
       H91          H  0.3136299  0.6435953  0.1897080    0.00000       Uiso       1.00
       H92          H  0.2808667  0.6763089  0.1712929    0.00000       Uiso       1.00
