data_44
_audit_creation_date              0000-00-00
_audit_creation_method            'LanYouShi'
_symmetry_space_group_name_H-M    'P1'
_cell_length_a                    45.0423012
_cell_length_b                    43.9552994
_cell_length_c                    29.5151005
_cell_angle_alpha                 101.1584015
_cell_angle_beta                  106.1132965
_cell_angle_gamma                 114.7854004
loop_
_atom_site_label
_atom_site_type_symbol
_atom_site_fract_x
_atom_site_fract_y
_atom_site_fract_z
_atom_site_U_iso_or_equiv
_atom_site_adp_type
_atom_site_occupancy
        C1          C  0.4081592  0.3363156  0.2029443    0.00000       Uiso       1.00
        C2          C  0.3880828  0.3501556  0.2176656    0.00000       Uiso       1.00
        C3          C  0.4032068  0.3773738  0.2643711    0.00000       Uiso       1.00
        C4          C  0.4436319  0.3501582  0.2355351    0.00000       Uiso       1.00
        C5          C  0.4588021  0.3773764  0.2822554    0.00000       Uiso       1.00
        C6          C  0.4394272  0.3927086  0.2972515    0.00000       Uiso       1.00
        H1          H  0.6550915  0.6141621  0.5152395    0.00000       Uiso       1.00
        H2          H  0.4604208  0.3392452  0.2240783    0.00000       Uiso       1.00
        H3          H  0.3591388  0.3392404  0.1914971    0.00000       Uiso       1.00
        C7          C  0.4379394  0.6636836  0.5355525    0.00000       Uiso       1.00
        C8          C  0.4402795  0.6498432  0.4906945    0.00000       Uiso       1.00
        C9          C  0.4488039  0.6226256  0.4841713    0.00000       Uiso       1.00
       C10          C  0.4441386  0.6498420  0.5737686    0.00000       Uiso       1.00
       C11          C  0.4526663  0.6226245  0.5673146    0.00000       Uiso       1.00
       C12          C  0.4539484  0.6072918  0.5215761    0.00000       Uiso       1.00
        H4          H  0.3860707  0.3858465  0.2751486    0.00000       Uiso       1.00
        H5          H  0.4422538  0.6607555  0.6105499    0.00000       Uiso       1.00
        H6          H  0.4352175  0.6607574  0.4590817    0.00000       Uiso       1.00
       C13          C  0.7257512  0.6636972  0.6281379    0.00000       Uiso       1.00
       C14          C  0.7095696  0.6498546  0.6591545    0.00000       Uiso       1.00
       C15          C  0.6738266  0.6226349  0.6384591    0.00000       Uiso       1.00
       C16          C  0.7057105  0.6498557  0.5760804    0.00000       Uiso       1.00
       C17          C  0.6699643  0.6226360  0.5553158    0.00000       Uiso       1.00
       C18          C  0.6533483  0.6073012  0.5857205    0.00000       Uiso       1.00
        H7          H  0.4997767  0.3858472  0.6106989    0.00000       Uiso       1.00
        H8          H  0.7185095  0.6607708  0.5502132    0.00000       Uiso       1.00
        H9          H  0.7255458  0.6607688  0.7016815    0.00000       Uiso       1.00
       C19          C  0.4281542  0.3363099  0.6333693    0.00000       Uiso       1.00
       C20          C  0.4620720  0.3501530  0.6324895    0.00000       Uiso       1.00
       C21          C  0.4741667  0.3773720  0.6130025    0.00000       Uiso       1.00
       C22          C  0.4065230  0.3501503  0.6146200    0.00000       Uiso       1.00
       C23          C  0.4185713  0.3773694  0.5951182    0.00000       Uiso       1.00
       C24          C  0.4532800  0.3927047  0.5954559    0.00000       Uiso       1.00
       H10          H  0.4590650  0.6141506  0.5989170    0.00000       Uiso       1.00
       C25          C  0.5000008  0.5000016  0.5000009    0.00000       Uiso       1.00
       H11          H  0.3788198  0.3392349  0.6151626    0.00000       Uiso       1.00
       H12          H  0.4801019  0.3392396  0.6477438    0.00000       Uiso       1.00
       Br1         Br  0.5063179  0.3923598  0.3263413    0.00000       Uiso       1.00
       Br2         Br  0.3860375  0.3923498  0.5660142    0.00000       Uiso       1.00
       Br3         Br  0.4547111  0.6076452  0.4236753    0.00000       Uiso       1.00
       Br4         Br  0.6529375  0.6076515  0.6839733    0.00000       Uiso       1.00
       C26          C  0.4555200  0.4210498  0.3478628    0.00000       Uiso       1.00
       C27          C  0.4450604  0.4469037  0.3555558    0.00000       Uiso       1.00
       C28          C  0.4594447  0.4728270  0.4033984    0.00000       Uiso       1.00
       C29          C  0.4811397  0.4221304  0.3892672    0.00000       Uiso       1.00
       C30          C  0.4960741  0.4484154  0.4366696    0.00000       Uiso       1.00
       C31          C  0.4857362  0.4744803  0.4450136    0.00000       Uiso       1.00
       H13          H  0.5099217  0.5521079  0.4586769    0.00000       Uiso       1.00
       H14          H  0.5512829  0.5092832  0.4563110    0.00000       Uiso       1.00
       H15          H  0.4890255  0.4019913  0.3857370    0.00000       Uiso       1.00
       C32          C  0.4640792  0.5789526  0.5148823    0.00000       Uiso       1.00
       C33          C  0.4841744  0.5778803  0.4863209    0.00000       Uiso       1.00
       C34          C  0.4938791  0.5515934  0.4802226    0.00000       Uiso       1.00
       C35          C  0.4543314  0.5530927  0.5375826    0.00000       Uiso       1.00
       C36          C  0.4647518  0.5271711  0.5324388    0.00000       Uiso       1.00
       C37          C  0.4843949  0.5255232  0.5029518    0.00000       Uiso       1.00
       H16          H  0.4489207  0.4907207  0.4073120    0.00000       Uiso       1.00
       H17          H  0.4326519  0.4478965  0.4801122    0.00000       Uiso       1.00
       H18          H  0.4935218  0.5980272  0.4697706    0.00000       Uiso       1.00
       C38          C  0.6148767  0.5789595  0.5640731    0.00000       Uiso       1.00
       C39          C  0.5937086  0.5778798  0.5915641    0.00000       Uiso       1.00
       C40          C  0.5577155  0.5515919  0.5713729    0.00000       Uiso       1.00
       C41          C  0.5987632  0.5531046  0.5155087    0.00000       Uiso       1.00
       C42          C  0.5624208  0.5271802  0.4947314    0.00000       Uiso       1.00
       C43          C  0.5411292  0.5255254  0.5225717    0.00000       Uiso       1.00
       H19          H  0.5418016  0.4907230  0.5834129    0.00000       Uiso       1.00
       H20          H  0.5152487  0.4479026  0.4677878    0.00000       Uiso       1.00
       H21          H  0.6045088  0.5980203  0.6282668    0.00000       Uiso       1.00
       C44          C  0.4655301  0.4210461  0.5731857    0.00000       Uiso       1.00
       C45          C  0.5018445  0.4469034  0.5913493    0.00000       Uiso       1.00
       C46          C  0.5133829  0.4728267  0.5694290    0.00000       Uiso       1.00
       C47          C  0.4409909  0.4221225  0.5328578    0.00000       Uiso       1.00
       C48          C  0.4523403  0.4484097  0.5117422    0.00000       Uiso       1.00
       C49          C  0.4887438  0.4744784  0.5294662    0.00000       Uiso       1.00
       H22          H  0.5421860  0.5521007  0.5934329    0.00000       Uiso       1.00
       H23          H  0.4579902  0.5092708  0.5529578    0.00000       Uiso       1.00
       H24          H  0.4129666  0.4019786  0.5162498    0.00000       Uiso       1.00
       Br5         Br  0.4105095  0.4470614  0.3008433    0.00000       Uiso       1.00
       Br6         Br  0.4268672  0.5529190  0.5766604    0.00000       Uiso       1.00
       Br7         Br  0.5365567  0.4470718  0.6462271    0.00000       Uiso       1.00
       Br8         Br  0.6260492  0.5529385  0.4762480    0.00000       Uiso       1.00
       C50          C  0.3714772  0.2629518  0.6662617    0.00000       Uiso       1.00
       C51          C  0.3931084  0.2491114  0.6850110    0.00000       Uiso       1.00
       C52          C  0.3810600  0.2218923  0.7045128    0.00000       Uiso       1.00
       C53          C  0.3375593  0.2491087  0.6671416    0.00000       Uiso       1.00
       C54          C  0.3254647  0.2218897  0.6866285    0.00000       Uiso       1.00
       C55          C  0.3463514  0.2065570  0.7041752    0.00000       Uiso       1.00
       H25          H  0.1376204  0.9851025  0.6354287    0.00000       Uiso       1.00
       H26          H  0.3195295  0.2600221  0.6518872    0.00000       Uiso       1.00
       H27          H  0.4208116  0.2600269  0.6844684    0.00000       Uiso       1.00
       C56          C  0.3616925  0.9355791  0.7640786    0.00000       Uiso       1.00
       C57          C  0.3554933  0.9494206  0.7258624    0.00000       Uiso       1.00
       C58          C  0.3469657  0.9766382  0.7323164    0.00000       Uiso       1.00
       C59          C  0.3593524  0.9494195  0.8089365    0.00000       Uiso       1.00
       C60          C  0.3508280  0.9766371  0.8154598    0.00000       Uiso       1.00
       C61          C  0.3456835  0.9919709  0.7780550    0.00000       Uiso       1.00
       H28          H  0.3994615  0.2134193  0.7209744    0.00000       Uiso       1.00
       H29          H  0.3644144  0.9385052  0.8405493    0.00000       Uiso       1.00
       H30          H  0.3573781  0.9385072  0.6890811    0.00000       Uiso       1.00
       C62          C  0.0738807  0.9355655  0.6714931    0.00000       Uiso       1.00
       C63          C  0.0939214  0.9494070  0.7235507    0.00000       Uiso       1.00
       C64          C  0.1296677  0.9766267  0.7443153    0.00000       Uiso       1.00
       C65          C  0.0900623  0.9494081  0.6404766    0.00000       Uiso       1.00
       C66          C  0.1258054  0.9766278  0.6611720    0.00000       Uiso       1.00
       C67          C  0.1462836  0.9919615  0.7139105    0.00000       Uiso       1.00
       H31          H  0.3139539  0.2134106  0.9924403    0.00000       Uiso       1.00
       H32          H  0.0740861  0.9384938  0.5979496    0.00000       Uiso       1.00
       H33          H  0.0811225  0.9384919  0.7494178    0.00000       Uiso       1.00
       C68          C  0.3914723  0.2629457  0.0966880    0.00000       Uiso       1.00
       C69          C  0.3559995  0.2491031  0.0640973    0.00000       Uiso       1.00
       C70          C  0.3408293  0.2218849  0.0173769    0.00000       Uiso       1.00
       C71          C  0.4115486  0.2491058  0.0819667    0.00000       Uiso       1.00
       C72          C  0.3964247  0.2218876  0.0352612    0.00000       Uiso       1.00
       C73          C  0.3602042  0.2065527  0.0023808    0.00000       Uiso       1.00
       H34          H  0.3474868  0.9851102  0.8496769    0.00000       Uiso       1.00
       C74          C  0.2996306  0.0992601  0.7996300    0.00000       Uiso       1.00
       H35          H  0.4404927  0.2600209  0.1081353    0.00000       Uiso       1.00
       H36          H  0.3392106  0.2600161  0.0755541    0.00000       Uiso       1.00
       Br9         Br  0.2801861  0.2069056  0.6907012    0.00000       Uiso       1.00
      Br10         Br  0.4267213  0.2069078  0.0162067    0.00000       Uiso       1.00
      Br11         Br  0.3356526  0.9916201  0.6764433    0.00000       Uiso       1.00
      Br12         Br  0.1559626  0.9916086  0.8151703    0.00000       Uiso       1.00
       C75          C  0.3336372  0.1782149  0.7262953    0.00000       Uiso       1.00
       C76          C  0.3443127  0.1523610  0.7232494    0.00000       Uiso       1.00
       C77          C  0.3331752  0.1264367  0.7452976    0.00000       Uiso       1.00
       C78          C  0.3111108  0.1771334  0.7514791    0.00000       Uiso       1.00
       C79          C  0.2993533  0.1508475  0.7724654    0.00000       Uiso       1.00
       C80          C  0.3099581  0.1247825  0.7698655    0.00000       Uiso       1.00
       H37          H  0.2838442  0.0471555  0.7146922    0.00000       Uiso       1.00
       H38          H  0.2423749  0.0899802  0.7147312    0.00000       Uiso       1.00
       H39          H  0.3032970  0.1972725  0.7565597    0.00000       Uiso       1.00
       C81          C  0.3355200  0.0203092  0.7840565    0.00000       Uiso       1.00
       C82          C  0.3121556  0.0213824  0.7422431    0.00000       Uiso       1.00
       C83          C  0.3024222  0.0476693  0.7477232    0.00000       Uiso       1.00
       C84          C  0.3485318  0.0461681  0.8316190    0.00000       Uiso       1.00
       C85          C  0.3381393  0.0720897  0.8373635    0.00000       Uiso       1.00
       C86          C  0.3151718  0.0737386  0.7952881    0.00000       Uiso       1.00
       H40          H  0.3438151  0.1085430  0.7438812    0.00000       Uiso       1.00
       H41          H  0.3688137  0.1513648  0.8590039    0.00000       Uiso       1.00
       H42          H  0.3003191  0.0012362  0.7052125    0.00000       Uiso       1.00
       C87          C  0.1847867  0.0203022  0.7362487    0.00000       Uiso       1.00
       C88          C  0.2092245  0.0213810  0.7791419    0.00000       Uiso       1.00
       C89          C  0.2452461  0.0476689  0.7999475    0.00000       Uiso       1.00
       C90          C  0.1976357  0.0461581  0.7145392    0.00000       Uiso       1.00
       C91          C  0.2339504  0.0720825  0.7347187    0.00000       Uiso       1.00
       C92          C  0.2585666  0.0737363  0.7784484    0.00000       Uiso       1.00
       H43          H  0.2647255  0.1085368  0.8646612    0.00000       Uiso       1.00
       H44          H  0.2825484  0.1513596  0.7923576    0.00000       Uiso       1.00
       H45          H  0.2009140  0.0012398  0.7960351    0.00000       Uiso       1.00
       C93          C  0.3445754  0.1782126  0.9519172    0.00000       Uiso       1.00
       C94          C  0.3080452  0.1523554  0.9291090    0.00000       Uiso       1.00
       C95          C  0.2932601  0.1264331  0.8811372    0.00000       Uiso       1.00
       C96          C  0.3660209  0.1771371  0.9256514    0.00000       Uiso       1.00
       C97          C  0.3514948  0.1508508  0.8783813    0.00000       Uiso       1.00
       C98          C  0.3148247  0.1247822  0.8549166    0.00000       Uiso       1.00
       H46          H  0.2633111  0.0471594  0.8324686    0.00000       Uiso       1.00
       H47          H  0.3476140  0.0899893  0.8752474    0.00000       Uiso       1.00
       H48          H  0.3939735  0.1972811  0.9407138    0.00000       Uiso       1.00
      Br13         Br  0.3747464  0.1522044  0.6893340    0.00000       Uiso       1.00
      Br14         Br  0.3805205  0.0463406  0.8899384    0.00000       Uiso       1.00
      Br15         Br  0.2774504  0.1521859  0.9628649    0.00000       Uiso       1.00
      Br16         Br  0.1658243  0.0463254  0.6563815    0.00000       Uiso       1.00
       H49          H  0.8420017  0.7827098  0.4619890    0.00000       Uiso       1.00
       H50          H  0.8289744  0.7268636  0.5093831    0.00000       Uiso       1.00
       H51          H  0.9441677  0.8490041  0.8443182    0.00000       Uiso       1.00
       H52          H  0.9845003  0.8390257  0.7833822    0.00000       Uiso       1.00
       H53          H  0.9576290  0.8165528  0.8376420    0.00000       Uiso       1.00
       H54          H  0.9706565  0.8723991  0.7902480    0.00000       Uiso       1.00
       H55          H  0.8554631  0.7502586  0.4553128    0.00000       Uiso       1.00
       H56          H  0.8151306  0.7602369  0.5162489    0.00000       Uiso       1.00
       H57          H  0.9899499  0.8624718  0.8678615    0.00000       Uiso       1.00
       H58          H  0.8747177  0.7779073  0.7048832    0.00000       Uiso       1.00
       H59          H  0.9740520  0.8590130  0.6205100    0.00000       Uiso       1.00
       H60          H  0.0230411  0.8978512  0.6106843    0.00000       Uiso       1.00
       C99          C  0.8804519  0.7863041  0.5982414    0.00000       Uiso       1.00
      C100          C  0.9150979  0.8127051  0.6205140    0.00000       Uiso       1.00
      C101          C  0.9733376  0.8559583  0.6888206    0.00000       Uiso       1.00
      C102          C  0.9359603  0.8272376  0.6713238    0.00000       Uiso       1.00
      C103          C  0.0373841  0.9076913  0.6497546    0.00000       Uiso       1.00
      C104          C  0.9646915  0.8455093  0.7890235    0.00000       Uiso       1.00
        O1          O  0.9313532  0.8206505  0.7526410    0.00000       Uiso       1.00
      C105          C  0.9642571  0.8433818  0.8379613    0.00000       Uiso       1.00
        N1          N  0.9877105  0.8683768  0.6578996    0.00000       Uiso       1.00
        N2          N  0.0224172  0.8949389  0.6770435    0.00000       Uiso       1.00
        O2          O  0.9921321  0.8691576  0.7316574    0.00000       Uiso       1.00
       H61          H  0.8096809  0.7367910  0.4317695    0.00000       Uiso       1.00
       H62          H  0.9249132  0.8213554  0.5947479    0.00000       Uiso       1.00
       H63          H  0.8255789  0.7402497  0.6791210    0.00000       Uiso       1.00
       H64          H  0.7765909  0.7014115  0.6889468    0.00000       Uiso       1.00
      C106          C  0.9191790  0.8129586  0.7013896    0.00000       Uiso       1.00
      C107          C  0.8845329  0.7865576  0.6791171    0.00000       Uiso       1.00
      C108          C  0.8262932  0.7433043  0.6108104    0.00000       Uiso       1.00
      C109          C  0.8636705  0.7720250  0.6283073    0.00000       Uiso       1.00
      C110          C  0.7622479  0.6915714  0.6498764    0.00000       Uiso       1.00
      C111          C  0.8349394  0.7537534  0.5106075    0.00000       Uiso       1.00
        O3          O  0.8682777  0.7786121  0.5469901    0.00000       Uiso       1.00
      C112          C  0.8353738  0.7558809  0.4616698    0.00000       Uiso       1.00
        N3          N  0.8119203  0.7308859  0.6417315    0.00000       Uiso       1.00
        N4          N  0.7772147  0.7043238  0.6225876    0.00000       Uiso       1.00
        O4          O  0.8074988  0.7301052  0.5679737    0.00000       Uiso       1.00
       H65          H  0.4406949  0.7826833  0.8207073    0.00000       Uiso       1.00
       H66          H  0.3978764  0.7268378  0.7174675    0.00000       Uiso       1.00
       H67          H  0.4048249  0.8489812  0.5046741    0.00000       Uiso       1.00
       H68          H  0.3545108  0.8389964  0.5556285    0.00000       Uiso       1.00
       H69          H  0.3589109  0.8165271  0.4788976    0.00000       Uiso       1.00
       H70          H  0.4017294  0.8723726  0.5821374    0.00000       Uiso       1.00
       H71          H  0.3947809  0.7502292  0.7949309    0.00000       Uiso       1.00
       H72          H  0.4450950  0.7602141  0.7439764    0.00000       Uiso       1.00
       H73          H  0.3725086  0.8624453  0.4945966    0.00000       Uiso       1.00
       H74          H  0.4031783  0.7778847  0.5730126    0.00000       Uiso       1.00
       H75          H  0.3849447  0.8589804  0.7384862    0.00000       Uiso       1.00
       H76          H  0.3747928  0.8978146  0.7871481    0.00000       Uiso       1.00
      C113          C  0.4058391  0.7862779  0.6880493    0.00000       Uiso       1.00
      C114          C  0.3975932  0.8126770  0.6921768    0.00000       Uiso       1.00
      C115          C  0.3826055  0.8559278  0.6671221    0.00000       Uiso       1.00
      C116          C  0.3912632  0.8272094  0.6558993    0.00000       Uiso       1.00
      C117          C  0.3702900  0.9076548  0.7579178    0.00000       Uiso       1.00
      C118          C  0.3808044  0.8454824  0.5564719    0.00000       Uiso       1.00
        O5          O  0.3892846  0.8206251  0.5679965    0.00000       Uiso       1.00
      C119          C  0.3791120  0.8433564  0.5054074    0.00000       Uiso       1.00
        N5          N  0.3806500  0.8683442  0.7104605    0.00000       Uiso       1.00
        N6          N  0.3725054  0.8949043  0.7178776    0.00000       Uiso       1.00
        O6          O  0.3770101  0.8691269  0.6374844    0.00000       Uiso       1.00
       H77          H  0.4270972  0.7367651  0.8050084    0.00000       Uiso       1.00
       H78          H  0.3964275  0.8213257  0.7265923    0.00000       Uiso       1.00
       H79          H  0.4146611  0.7402300  0.5611187    0.00000       Uiso       1.00
       H80          H  0.4248130  0.7013959  0.5124568    0.00000       Uiso       1.00
      C120          C  0.3937666  0.8129326  0.6115556    0.00000       Uiso       1.00
      C121          C  0.4020126  0.7865335  0.6074282    0.00000       Uiso       1.00
      C122          C  0.4170003  0.7432826  0.6324829    0.00000       Uiso       1.00
      C123          C  0.4083426  0.7720010  0.6437055    0.00000       Uiso       1.00
      C124          C  0.4293159  0.6915557  0.5416871    0.00000       Uiso       1.00
      C125          C  0.4188014  0.7537280  0.7431330    0.00000       Uiso       1.00
        O7          O  0.4103212  0.7785853  0.7316085    0.00000       Uiso       1.00
      C126          C  0.4204938  0.7558541  0.7941975    0.00000       Uiso       1.00
        N7          N  0.4189558  0.7308661  0.5891445    0.00000       Uiso       1.00
        N8          N  0.4271004  0.7043061  0.5817273    0.00000       Uiso       1.00
        O8          O  0.4225956  0.7300836  0.6621206    0.00000       Uiso       1.00
        N9          N  0.3833017  0.2838250  0.6374144    0.00000       Uiso       1.00
        O9          O  0.3663003  0.2718644  0.5906293    0.00000       Uiso       1.00
       N10          N  0.4174659  0.3141891  0.6613165    0.00000       Uiso       1.00
       O10          O  0.4348463  0.3255542  0.7079432    0.00000       Uiso       1.00
       N11          N  0.4005283  0.2838336  0.1464159    0.00000       Uiso       1.00
       O11          O  0.4055690  0.2718728  0.1812402    0.00000       Uiso       1.00
       N12          N  0.3967272  0.3141959  0.1528769    0.00000       Uiso       1.00
       O12          O  0.3907119  0.3255611  0.1176153    0.00000       Uiso       1.00
