data_50
_audit_creation_date              0000-00-00
_audit_creation_method            'LanYouShi'
_symmetry_space_group_name_H-M    'P1'
_cell_length_a                    47.1506004
_cell_length_b                    45.5477982
_cell_length_c                    29.5121994
_cell_angle_alpha                 105.4623032
_cell_angle_beta                  112.0102005
_cell_angle_gamma                 57.9268990
loop_
_atom_site_label
_atom_site_type_symbol
_atom_site_fract_x
_atom_site_fract_y
_atom_site_fract_z
_atom_site_U_iso_or_equiv
_atom_site_adp_type
_atom_site_occupancy
        C1          C  0.2779931  0.5632697  0.4133655    0.00000       Uiso       1.00
        C2          C  0.2934863  0.5605270  0.3792041    0.00000       Uiso       1.00
        C3          C  0.3286791  0.5517675  0.3934621    0.00000       Uiso       1.00
        C4          C  0.2981682  0.5572320  0.4620548    0.00000       Uiso       1.00
        C5          C  0.3333649  0.5484697  0.4763818    0.00000       Uiso       1.00
        C6          C  0.3493235  0.5467430  0.4428732    0.00000       Uiso       1.00
        H1          H  0.2859306  0.5594420  0.4904253    0.00000       Uiso       1.00
        H2          H  0.2773941  0.5654498  0.3393645    0.00000       Uiso       1.00
        C7          C  0.5717896  0.5864539  0.3629096    0.00000       Uiso       1.00
        C8          C  0.5389848  0.6064513  0.3712882    0.00000       Uiso       1.00
        C9          C  0.5268742  0.5922046  0.3914072    0.00000       Uiso       1.00
       C10          C  0.5922884  0.5519515  0.3747973    0.00000       Uiso       1.00
       C11          C  0.5802221  0.5376594  0.3949192    0.00000       Uiso       1.00
       C12          C  0.5466040  0.5569876  0.4021268    0.00000       Uiso       1.00
        H3          H  0.6190733  0.5352420  0.3680925    0.00000       Uiso       1.00
        H4          H  0.5218855  0.6346109  0.3616944    0.00000       Uiso       1.00
       C13          C  0.5960475  0.5693817  0.7921769    0.00000       Uiso       1.00
       C14          C  0.6146600  0.5362068  0.7706841    0.00000       Uiso       1.00
       C15          C  0.5988623  0.5245408  0.7247767    0.00000       Uiso       1.00
       C16          C  0.5613565  0.5907066  0.7671750    0.00000       Uiso       1.00
       C17          C  0.5455144  0.5790859  0.7212648    0.00000       Uiso       1.00
       C18          C  0.5634102  0.5451596  0.6995292    0.00000       Uiso       1.00
        H5          H  0.5457624  0.6178067  0.7842205    0.00000       Uiso       1.00
        H6          H  0.6429502  0.5184379  0.7906186    0.00000       Uiso       1.00
       C19          C  0.5541702  0.2808947  0.4315468    0.00000       Uiso       1.00
       C20          C  0.5528693  0.2968149  0.4788223    0.00000       Uiso       1.00
       C21          C  0.5455849  0.3314871  0.4903527    0.00000       Uiso       1.00
       C22          C  0.5481874  0.3001099  0.3959717    0.00000       Uiso       1.00
       C23          C  0.5408990  0.3347849  0.4074330    0.00000       Uiso       1.00
       C24          C  0.5406628  0.3511097  0.4554695    0.00000       Uiso       1.00
       C25          C  0.5000001  0.5000001  0.4999994    0.00000       Uiso       1.00
        H7          H  0.5492341  0.2875092  0.3572604    0.00000       Uiso       1.00
        H8          H  0.5577706  0.2815014  0.5083212    0.00000       Uiso       1.00
        N1          N  0.3542441  0.5397946  0.5286725    0.00000       Uiso       1.00
        O1          O  0.3848142  0.5320567  0.5427208    0.00000       Uiso       1.00
        O2          O  0.3404085  0.5405793  0.5565261    0.00000       Uiso       1.00
        N2          N  0.5321643  0.3547361  0.3663642    0.00000       Uiso       1.00
        O3          O  0.5256724  0.3848304  0.3745649    0.00000       Uiso       1.00
        O4          O  0.5316555  0.3406327  0.3252558    0.00000       Uiso       1.00
        N3          N  0.4923598  0.6159888  0.4028385    0.00000       Uiso       1.00
        O5          O  0.4808396  0.6047960  0.4202944    0.00000       Uiso       1.00
        O6          O  0.4762219  0.6462383  0.3945437    0.00000       Uiso       1.00
        N4          N  0.6212322  0.4894805  0.7021236    0.00000       Uiso       1.00
        O7          O  0.6086742  0.4783168  0.6624186    0.00000       Uiso       1.00
        O8          O  0.6517133  0.4725486  0.7236721    0.00000       Uiso       1.00
        N5          N  0.5088544  0.6043802  0.6947255    0.00000       Uiso       1.00
        O9          O  0.4940958  0.5954666  0.6548756    0.00000       Uiso       1.00
       O10          O  0.4942357  0.6335614  0.7133040    0.00000       Uiso       1.00
        N6          N  0.6047376  0.5010890  0.4102366    0.00000       Uiso       1.00
       O11          O  0.5954180  0.4876463  0.4278374    0.00000       Uiso       1.00
       O12          O  0.6337006  0.4852266  0.4049128    0.00000       Uiso       1.00
        N7          N  0.5420350  0.3477893  0.5410352    0.00000       Uiso       1.00
       O13          O  0.5357364  0.3777476  0.5526564    0.00000       Uiso       1.00
       O14          O  0.5454891  0.3308975  0.5700276    0.00000       Uiso       1.00
        N8          N  0.3443734  0.5467414  0.3540015    0.00000       Uiso       1.00
       O15          O  0.3747502  0.5391396  0.3646294    0.00000       Uiso       1.00
       O16          O  0.3265761  0.5503156  0.3117553    0.00000       Uiso       1.00
       C26          C  0.3872066  0.5363629  0.4581825    0.00000       Uiso       1.00
       C27          C  0.3999723  0.5485395  0.4354863    0.00000       Uiso       1.00
       C28          C  0.4356681  0.5379660  0.4489434    0.00000       Uiso       1.00
       C29          C  0.4111065  0.5136389  0.4951998    0.00000       Uiso       1.00
       C30          C  0.4465398  0.5037062  0.5093994    0.00000       Uiso       1.00
       C31          C  0.4597649  0.5156240  0.4868124    0.00000       Uiso       1.00
        H9          H  0.4850937  0.5670024  0.5023299    0.00000       Uiso       1.00
       H10          H  0.4676861  0.5436523  0.5757010    0.00000       Uiso       1.00
       H11          H  0.4027891  0.5024805  0.5124188    0.00000       Uiso       1.00
       H12          H  0.3823490  0.5661525  0.4069372    0.00000       Uiso       1.00
       C32          C  0.5339021  0.5422819  0.4249553    0.00000       Uiso       1.00
       C33          C  0.5126507  0.5635342  0.4561707    0.00000       Uiso       1.00
       C34          C  0.5009023  0.5498674  0.4778042    0.00000       Uiso       1.00
       C35          C  0.5433170  0.5068330  0.4165005    0.00000       Uiso       1.00
       C36          C  0.5321895  0.4929104  0.4390858    0.00000       Uiso       1.00
       C37          C  0.5102504  0.5142863  0.4697996    0.00000       Uiso       1.00
       H13          H  0.4439973  0.5468233  0.4283456    0.00000       Uiso       1.00
       H14          H  0.4823980  0.4647506  0.4131883    0.00000       Uiso       1.00
       H15          H  0.5595595  0.4896776  0.3925666    0.00000       Uiso       1.00
       H16          H  0.5058333  0.5906690  0.4653566    0.00000       Uiso       1.00
       C38          C  0.5470529  0.5328851  0.6498491    0.00000       Uiso       1.00
       C39          C  0.5672042  0.5106052  0.6176186    0.00000       Uiso       1.00
       C40          C  0.5519977  0.4992470  0.5710776    0.00000       Uiso       1.00
       C41          C  0.5111214  0.5437210  0.6337994    0.00000       Uiso       1.00
       C42          C  0.4956701  0.5329634  0.5866547    0.00000       Uiso       1.00
       C43          C  0.5159186  0.5100126  0.5543806    0.00000       Uiso       1.00
       H17          H  0.5464897  0.4443405  0.5628617    0.00000       Uiso       1.00
       H18          H  0.4641797  0.4856471  0.5374478    0.00000       Uiso       1.00
       H19          H  0.4947760  0.5607890  0.6576353    0.00000       Uiso       1.00
       H20          H  0.5946810  0.5026426  0.6275235    0.00000       Uiso       1.00
       C44          C  0.5318390  0.3884717  0.4670147    0.00000       Uiso       1.00
       C45          C  0.5455847  0.4009094  0.5142066    0.00000       Uiso       1.00
       C46          C  0.5364687  0.4361630  0.5253096    0.00000       Uiso       1.00
       C47          C  0.5090433  0.4122241  0.4310224    0.00000       Uiso       1.00
       C48          C  0.5005630  0.4471810  0.4417241    0.00000       Uiso       1.00
       C49          C  0.5140662  0.4600784  0.4890062    0.00000       Uiso       1.00
       H21          H  0.5683327  0.4825977  0.5470387    0.00000       Uiso       1.00
       H22          H  0.5418195  0.4651831  0.4330802    0.00000       Uiso       1.00
       H23          H  0.4967105  0.4042056  0.3947246    0.00000       Uiso       1.00
       H24          H  0.5633038  0.3833833  0.5428419    0.00000       Uiso       1.00
       C50          C  0.6265782  0.9222366  0.2704567    0.00000       Uiso       1.00
       C51          C  0.6326611  0.9021283  0.3049049    0.00000       Uiso       1.00
       C52          C  0.6424190  0.8668426  0.2930286    0.00000       Uiso       1.00
       C53          C  0.6302862  0.9065834  0.2238790    0.00000       Uiso       1.00
       C54          C  0.6400421  0.8713013  0.2119351    0.00000       Uiso       1.00
       C55          C  0.6451362  0.8506890  0.2455784    0.00000       Uiso       1.00
       H25          H  0.6253417  0.9226168  0.1952941    0.00000       Uiso       1.00
       H26          H  0.6296718  0.9144940  0.3430280    0.00000       Uiso       1.00
       C56          C  0.6276786  0.6012948  0.3222006    0.00000       Uiso       1.00
       C57          C  0.6057106  0.6356609  0.3099211    0.00000       Uiso       1.00
       C58          C  0.6171328  0.6519361  0.2922391    0.00000       Uiso       1.00
       C59          C  0.6612929  0.5834488  0.3166923    0.00000       Uiso       1.00
       C60          C  0.6727613  0.5996804  0.2990159    0.00000       Uiso       1.00
       C61          C  0.6514629  0.6348373  0.2879869    0.00000       Uiso       1.00
       H27          H  0.6795859  0.5554341  0.3266482    0.00000       Uiso       1.00
       H28          H  0.5782435  0.6506321  0.3143024    0.00000       Uiso       1.00
       C62          C  0.6153735  0.6243774  0.9023870    0.00000       Uiso       1.00
       C63          C  0.6499445  0.6047364  0.9295241    0.00000       Uiso       1.00
       C64          C  0.6633058  0.6174176  0.9764226    0.00000       Uiso       1.00
       C65          C  0.5943624  0.6569487  0.9227529    0.00000       Uiso       1.00
       C66          C  0.6076773  0.6696733  0.9696459    0.00000       Uiso       1.00
       C67          C  0.6429377  0.6508293  0.9971341    0.00000       Uiso       1.00
       H29          H  0.5661316  0.6733522  0.9010816    0.00000       Uiso       1.00
       H30          H  0.6674740  0.5781542  0.9134274    0.00000       Uiso       1.00
       C68          C  0.9145613  0.6517138  0.3055394    0.00000       Uiso       1.00
       C69          C  0.8958753  0.6570969  0.2562337    0.00000       Uiso       1.00
       C70          C  0.8613341  0.6634263  0.2388934    0.00000       Uiso       1.00
       C71          C  0.8982502  0.6526419  0.3372596    0.00000       Uiso       1.00
       C72          C  0.8637109  0.6589676  0.3199869    0.00000       Uiso       1.00
       C73          C  0.8446549  0.6632671  0.2698843    0.00000       Uiso       1.00
       C74          C  0.6960478  0.6999056  0.2001463    0.00000       Uiso       1.00
       H31          H  0.9131325  0.6482196  0.3775598    0.00000       Uiso       1.00
       H32          H  0.9088023  0.6563424  0.2298259    0.00000       Uiso       1.00
        N9          N  0.6460714  0.8555034  0.1622646    0.00000       Uiso       1.00
       O17          O  0.6545537  0.8250473  0.1503303    0.00000       Uiso       1.00
       O18          O  0.6424222  0.8732967  0.1343968    0.00000       Uiso       1.00
       N10          N  0.8468970  0.6621650  0.3569437    0.00000       Uiso       1.00
       O19          O  0.8170326  0.6676388  0.3436712    0.00000       Uiso       1.00
       O20          O  0.8632843  0.6592547  0.3998283    0.00000       Uiso       1.00
       N11          N  0.5912043  0.6881679  0.2762795    0.00000       Uiso       1.00
       O21          O  0.5999267  0.7032776  0.2607213    0.00000       Uiso       1.00
       O22          O  0.5617067  0.7020929  0.2790483    0.00000       Uiso       1.00
       N12          N  0.7000191  0.5937861  0.0050964    0.00000       Uiso       1.00
       O23          O  0.7126788  0.6036588  0.0458613    0.00000       Uiso       1.00
       O24          O  0.7167794  0.5649794  0.9873115    0.00000       Uiso       1.00
       N13          N  0.5828372  0.7038633  0.9908206    0.00000       Uiso       1.00
       O25          O  0.5932024  0.7158914  0.0313065    0.00000       Uiso       1.00
       O26          O  0.5525689  0.7192327  0.9673080    0.00000       Uiso       1.00
       N14          N  0.7083861  0.5780909  0.2905549    0.00000       Uiso       1.00
       O27          O  0.7194031  0.5910450  0.2752762    0.00000       Uiso       1.00
       O28          O  0.7259161  0.5478385  0.2990507    0.00000       Uiso       1.00
       N15          N  0.8418900  0.6715573  0.1861197    0.00000       Uiso       1.00
       O29          O  0.8119275  0.6772150  0.1695020    0.00000       Uiso       1.00
       O30          O  0.8562685  0.6724149  0.1604474    0.00000       Uiso       1.00
       N16          N  0.6510784  0.8461111  0.3330886    0.00000       Uiso       1.00
       O31          O  0.6596588  0.8154710  0.3244995    0.00000       Uiso       1.00
       O32          O  0.6494371  0.8601353  0.3737766    0.00000       Uiso       1.00
       C75          C  0.6565545  0.8127763  0.2329922    0.00000       Uiso       1.00
       C76          C  0.6473426  0.7956788  0.2535759    0.00000       Uiso       1.00
       C77          C  0.6589298  0.7599100  0.2428039    0.00000       Uiso       1.00
       C78          C  0.6773326  0.7931638  0.2007999    0.00000       Uiso       1.00
       C79          C  0.6882354  0.7577071  0.1891832    0.00000       Uiso       1.00
       C80          C  0.6792949  0.7401519  0.2097119    0.00000       Uiso       1.00
       H33          H  0.6306514  0.7108085  0.1862884    0.00000       Uiso       1.00
       H34          H  0.6466846  0.7393596  0.1175343    0.00000       Uiso       1.00
       H35          H  0.6862541  0.8048266  0.1855338    0.00000       Uiso       1.00
       H36          H  0.6312884  0.8099343  0.2784053    0.00000       Uiso       1.00
       C81          C  0.6630940  0.6520799  0.2676992    0.00000       Uiso       1.00
       C82          C  0.6390882  0.6765522  0.2329284    0.00000       Uiso       1.00
       C83          C  0.6498719  0.6925632  0.2136632    0.00000       Uiso       1.00
       C84          C  0.6983059  0.6438792  0.2821808    0.00000       Uiso       1.00
       C85          C  0.7093095  0.6593534  0.2620328    0.00000       Uiso       1.00
       C86          C  0.6851743  0.6844941  0.2277220    0.00000       Uiso       1.00
       H37          H  0.6524534  0.7480404  0.2617879    0.00000       Uiso       1.00
       H38          H  0.7347825  0.7118264  0.2912950    0.00000       Uiso       1.00
       H39          H  0.7175335  0.6252382  0.3089843    0.00000       Uiso       1.00
       H40          H  0.6119694  0.6827152  0.2191756    0.00000       Uiso       1.00
       C87          C  0.6571109  0.6637366  0.0478434    0.00000       Uiso       1.00
       C88          C  0.6820995  0.6404063  0.0837653    0.00000       Uiso       1.00
       C89          C  0.6952501  0.6523622  0.1312488    0.00000       Uiso       1.00
       C90          C  0.6454394  0.6994487  0.0611222    0.00000       Uiso       1.00
       C91          C  0.6580404  0.7115517  0.1090948    0.00000       Uiso       1.00
       C92          C  0.6836817  0.6881655  0.1451745    0.00000       Uiso       1.00
       H41          H  0.7480937  0.6616413  0.1484654    0.00000       Uiso       1.00
       H42          H  0.7047536  0.7434134  0.1649226    0.00000       Uiso       1.00
       H43          H  0.6262957  0.7181956  0.0344278    0.00000       Uiso       1.00
       H44          H  0.6908817  0.6128091  0.0758913    0.00000       Uiso       1.00
       C93          C  0.8074307  0.6710297  0.2520465    0.00000       Uiso       1.00
       C94          C  0.7931010  0.6606201  0.2037106    0.00000       Uiso       1.00
       C95          C  0.7579095  0.6688108  0.1866572    0.00000       Uiso       1.00
       C96          C  0.7856686  0.6894968  0.2830776    0.00000       Uiso       1.00
       C97          C  0.7508326  0.6969880  0.2664824    0.00000       Uiso       1.00
       C98          C  0.7360396  0.6868110  0.2179755    0.00000       Uiso       1.00
       H45          H  0.7140061  0.6335711  0.1580725    0.00000       Uiso       1.00
       H46          H  0.7369609  0.6505883  0.2728066    0.00000       Uiso       1.00
       H47          H  0.7950879  0.6992601  0.3199597    0.00000       Uiso       1.00
       H48          H  0.8090723  0.6462651  0.1787836    0.00000       Uiso       1.00
       N17          N  0.6055296  0.6128413  0.8524808    0.00000       Uiso       1.00
       O33          O  0.6006404  0.6291240  0.8198388    0.00000       Uiso       1.00
       N18          N  0.6082098  0.5797797  0.8419349    0.00000       Uiso       1.00
       O34          O  0.6140530  0.5631161  0.8748229    0.00000       Uiso       1.00
       N19          N  0.6161209  0.5929597  0.3523311    0.00000       Uiso       1.00
       O35          O  0.6332740  0.5880639  0.3963054    0.00000       Uiso       1.00
       N20          N  0.5823081  0.5971149  0.3341094    0.00000       Uiso       1.00
       O36          O  0.5648118  0.6029586  0.2904536    0.00000       Uiso       1.00
       C99          C  0.5597320  0.2489876  0.4199795    0.00000       Uiso       1.00
       N21          N  0.5648109  0.2225417  0.3828514    0.00000       Uiso       1.00
      C100          C  0.5720007  0.1896272  0.3865124    0.00000       Uiso       1.00
      C101          C  0.5748721  0.1796689  0.4275839    0.00000       Uiso       1.00
      C102          C  0.5932229  0.0920120  0.3915867    0.00000       Uiso       1.00
      C103          C  0.5861742  0.1244389  0.3899670    0.00000       Uiso       1.00
      C104          C  0.5833737  0.1340382  0.3485002    0.00000       Uiso       1.00
      C105          C  0.5818564  0.1475392  0.4292063    0.00000       Uiso       1.00
      C106          C  0.5763215  0.1665187  0.3473471    0.00000       Uiso       1.00
       O37          O  0.5852426  0.1193394  0.2730930    0.00000       Uiso       1.00
       H49          H  0.6193727  0.9596606  0.2477978    0.00000       Uiso       1.00
       H50          H  0.6090018  0.0070649  0.2416078    0.00000       Uiso       1.00
       H51          H  0.5969374  0.0625939  0.2391770    0.00000       Uiso       1.00
       H52          H  0.6067052  0.0292066  0.3849808    0.00000       Uiso       1.00
       H53          H  0.5634494  0.2262215  0.3504253    0.00000       Uiso       1.00
      C107          C  0.6211412  0.9541254  0.2805317    0.00000       Uiso       1.00
       N22          N  0.6160623  0.9805714  0.3176598    0.00000       Uiso       1.00
      C108          C  0.6088725  0.0134857  0.3139988    0.00000       Uiso       1.00
      C109          C  0.6060012  0.0234441  0.2729273    0.00000       Uiso       1.00
      C110          C  0.5876504  0.1111009  0.3089245    0.00000       Uiso       1.00
      C111          C  0.5946990  0.0786741  0.3105442    0.00000       Uiso       1.00
      C112          C  0.5974995  0.0690747  0.3520111    0.00000       Uiso       1.00
      C113          C  0.5990168  0.0555737  0.2713049    0.00000       Uiso       1.00
      C114          C  0.6045516  0.0365943  0.3531641    0.00000       Uiso       1.00
       O38          O  0.5956306  0.0837735  0.4274183    0.00000       Uiso       1.00
       H54          H  0.5615005  0.2434523  0.4527134    0.00000       Uiso       1.00
       H55          H  0.5718715  0.1960481  0.4589034    0.00000       Uiso       1.00
       H56          H  0.5839359  0.1405191  0.4613342    0.00000       Uiso       1.00
       H57          H  0.5741680  0.1739063  0.3155304    0.00000       Uiso       1.00
       H58          H  0.6174238  0.9768915  0.3500859    0.00000       Uiso       1.00
      C115          C  0.2455588  0.5702260  0.4001018    0.00000       Uiso       1.00
       N23          N  0.2192175  0.5769298  0.4175826    0.00000       Uiso       1.00
      C116          C  0.1855519  0.5852616  0.3894571    0.00000       Uiso       1.00
      C117          C  0.1746601  0.5877730  0.3409744    0.00000       Uiso       1.00
      C118          C  0.0858113  0.6099730  0.3118291    0.00000       Uiso       1.00
      C119          C  0.1189430  0.6017641  0.3375504    0.00000       Uiso       1.00
      C120          C  0.1294753  0.5993437  0.3861617    0.00000       Uiso       1.00
      C121          C  0.1418317  0.5959067  0.3154712    0.00000       Uiso       1.00
      C122          C  0.1626536  0.5911211  0.4114561    0.00000       Uiso       1.00
       O39          O  0.1158025  0.6030827  0.4506617    0.00000       Uiso       1.00
       H59          H  0.9532409  0.6435133  0.3572814    0.00000       Uiso       1.00
       H60          H  0.0017430  0.6315138  0.3987061    0.00000       Uiso       1.00
       H61          H  0.0584729  0.6174565  0.4424095    0.00000       Uiso       1.00
       H62          H  0.0218128  0.6258745  0.2717564    0.00000       Uiso       1.00
       H63          H  0.2235470  0.5760059  0.4527513    0.00000       Uiso       1.00
      C123          C  0.9470118  0.6449069  0.3204257    0.00000       Uiso       1.00
       N24          N  0.9733530  0.6382030  0.3029449    0.00000       Uiso       1.00
      C124          C  0.0070184  0.6298712  0.3310704    0.00000       Uiso       1.00
      C125          C  0.0179103  0.6273598  0.3795531    0.00000       Uiso       1.00
      C126          C  0.1067590  0.6051599  0.4086984    0.00000       Uiso       1.00
      C127          C  0.0736273  0.6133687  0.3829771    0.00000       Uiso       1.00
      C128          C  0.0630950  0.6157892  0.3343658    0.00000       Uiso       1.00
      C129          C  0.0507386  0.6192261  0.4050563    0.00000       Uiso       1.00
      C130          C  0.0299168  0.6240117  0.3090714    0.00000       Uiso       1.00
       O40          O  0.0767678  0.6120502  0.2698658    0.00000       Uiso       1.00
       H64          H  0.2393297  0.5716196  0.3632460    0.00000       Uiso       1.00
       H65          H  0.1908274  0.5836191  0.3218214    0.00000       Uiso       1.00
       H66          H  0.1340974  0.5976764  0.2781180    0.00000       Uiso       1.00
       H67          H  0.1707575  0.5892584  0.4487711    0.00000       Uiso       1.00
       H68          H  0.9690235  0.6391270  0.2677761    0.00000       Uiso       1.00
