data_55
_audit_creation_date              0000-00-00
_audit_creation_method            'LanYouShi'
_symmetry_space_group_name_H-M    'P1'
_cell_length_a                    61.6470985
_cell_length_b                    49.3731995
_cell_length_c                    49.3984985
_cell_angle_alpha                 79.7779999
_cell_angle_beta                  109.1955032
_cell_angle_gamma                 70.7981033
loop_
_atom_site_label
_atom_site_type_symbol
_atom_site_fract_x
_atom_site_fract_y
_atom_site_fract_z
_atom_site_U_iso_or_equiv
_atom_site_adp_type
_atom_site_occupancy
        C1          C  0.3310360  0.5994481  0.2186995    0.00000       Uiso       1.00
        C2          C  0.3409675  0.5690408  0.2359627    0.00000       Uiso       1.00
        C3          C  0.3596739  0.5581038  0.2657845    0.00000       Uiso       1.00
        C4          C  0.3401349  0.6188217  0.2313320    0.00000       Uiso       1.00
        C5          C  0.3587414  0.6080696  0.2611611    0.00000       Uiso       1.00
        C6          C  0.3687946  0.5775072  0.2789398    0.00000       Uiso       1.00
        H1          H  0.6411448  0.2807678  0.5430146    0.00000       Uiso       1.00
        H2          H  0.6361839  0.5934042  0.5141387    0.00000       Uiso       1.00
        H3          H  0.3322915  0.6436717  0.2175455    0.00000       Uiso       1.00
        H4          H  0.3338096  0.5529066  0.2259885    0.00000       Uiso       1.00
        C7          C  0.6767724  0.2222952  0.6091642    0.00000       Uiso       1.00
        C8          C  0.6674388  0.2390509  0.5787184    0.00000       Uiso       1.00
        C9          C  0.6480194  0.2684787  0.5667259    0.00000       Uiso       1.00
       C10          C  0.6662687  0.2349963  0.6275043    0.00000       Uiso       1.00
       C11          C  0.6467512  0.2643858  0.6156098    0.00000       Uiso       1.00
       C12          C  0.6373752  0.2816887  0.5850091    0.00000       Uiso       1.00
        H5          H  0.3666660  0.5345663  0.2787666    0.00000       Uiso       1.00
        H6          H  0.3595901  0.5088821  0.5854374    0.00000       Uiso       1.00
        H7          H  0.6736097  0.2216180  0.6523684    0.00000       Uiso       1.00
        H8          H  0.6757430  0.2290108  0.5634176    0.00000       Uiso       1.00
       C13          C  0.6702808  0.6104246  0.5730599    0.00000       Uiso       1.00
       C14          C  0.6601125  0.6030689  0.5932658    0.00000       Uiso       1.00
       C15          C  0.6413658  0.5920369  0.5852184    0.00000       Uiso       1.00
       C16          C  0.6612826  0.6071236  0.5444799    0.00000       Uiso       1.00
       C17          C  0.6424409  0.5962238  0.5362330    0.00000       Uiso       1.00
       C18          C  0.6322445  0.5883544  0.5565570    0.00000       Uiso       1.00
        H9          H  0.3578371  0.5982271  0.5765758    0.00000       Uiso       1.00
       H10          H  0.3654591  0.6236486  0.2701894    0.00000       Uiso       1.00
       H11          H  0.6693192  0.6130897  0.5276901    0.00000       Uiso       1.00
       H12          H  0.6671858  0.6056970  0.6166409    0.00000       Uiso       1.00
       C19          C  0.3219135  0.5678353  0.5990704    0.00000       Uiso       1.00
       C20          C  0.3314838  0.5888425  0.5920472    0.00000       Uiso       1.00
       C21          C  0.3511367  0.5812899  0.5823675    0.00000       Uiso       1.00
       C22          C  0.3323165  0.5390615  0.5966778    0.00000       Uiso       1.00
       C23          C  0.3518765  0.5314170  0.5868888    0.00000       Uiso       1.00
       C24          C  0.3615885  0.5524521  0.5794891    0.00000       Uiso       1.00
       H13          H  0.6338093  0.5867026  0.6013522    0.00000       Uiso       1.00
       H14          H  0.6393153  0.2738061  0.6305145    0.00000       Uiso       1.00
       C25          C  0.5000015  0.5000013  0.4999994    0.00000       Uiso       1.00
       H15          H  0.3247823  0.5216237  0.6023900    0.00000       Uiso       1.00
       H16          H  0.3232642  0.6123888  0.5939469    0.00000       Uiso       1.00
       C26          C  0.3884647  0.5660748  0.3109815    0.00000       Uiso       1.00
       C27          C  0.4087195  0.5372328  0.3227232    0.00000       Uiso       1.00
       C28          C  0.4270360  0.5265579  0.3527151    0.00000       Uiso       1.00
       C29          C  0.3871386  0.5838960  0.3302158    0.00000       Uiso       1.00
       C30          C  0.4054321  0.5732206  0.3602066    0.00000       Uiso       1.00
       C31          C  0.4257063  0.5443656  0.3719821    0.00000       Uiso       1.00
       H17          H  0.5997764  0.3831830  0.5244236    0.00000       Uiso       1.00
       H18          H  0.5596031  0.5863804  0.4880691    0.00000       Uiso       1.00
       H19          H  0.3716075  0.6059464  0.3222437    0.00000       Uiso       1.00
       H20          H  0.4106610  0.5230660  0.3085037    0.00000       Uiso       1.00
       C32          C  0.6168249  0.3133121  0.5722957    0.00000       Uiso       1.00
       C33          C  0.6174095  0.3363796  0.5515687    0.00000       Uiso       1.00
       C34          C  0.5982904  0.3659812  0.5397509    0.00000       Uiso       1.00
       C35          C  0.5964594  0.3208199  0.5807805    0.00000       Uiso       1.00
       C36          C  0.5773175  0.3504236  0.5689405    0.00000       Uiso       1.00
       C37          C  0.5779045  0.3735221  0.5482243    0.00000       Uiso       1.00
       H21          H  0.4425143  0.5044572  0.3606941    0.00000       Uiso       1.00
       H22          H  0.4011184  0.5068812  0.5229101    0.00000       Uiso       1.00
       H23          H  0.5950852  0.3036131  0.5962369    0.00000       Uiso       1.00
       H24          H  0.6329848  0.3316788  0.5449235    0.00000       Uiso       1.00
       C38          C  0.6124228  0.5761905  0.5480726    0.00000       Uiso       1.00
       C39          C  0.6128299  0.5526406  0.5693150    0.00000       Uiso       1.00
       C40          C  0.5943941  0.5411420  0.5614138    0.00000       Uiso       1.00
       C41          C  0.5929398  0.5878957  0.5186713    0.00000       Uiso       1.00
       C42          C  0.5744799  0.5764187  0.5107687    0.00000       Uiso       1.00
       C43          C  0.5748911  0.5528344  0.5320040    0.00000       Uiso       1.00
       H25          H  0.4360863  0.5540424  0.5755785    0.00000       Uiso       1.00
       H26          H  0.4033793  0.5873634  0.3744276    0.00000       Uiso       1.00
       H27          H  0.5917054  0.6063644  0.5018507    0.00000       Uiso       1.00
       H28          H  0.6277603  0.5426343  0.5919738    0.00000       Uiso       1.00
       C44          C  0.3822906  0.5444239  0.5686464    0.00000       Uiso       1.00
       C45          C  0.4018818  0.5540521  0.5778338    0.00000       Uiso       1.00
       C46          C  0.4211679  0.5466003  0.5675886    0.00000       Uiso       1.00
       C47          C  0.3826287  0.5270846  0.5488885    0.00000       Uiso       1.00
       C48          C  0.4018915  0.5196569  0.5386190    0.00000       Uiso       1.00
       C49          C  0.4215035  0.5292773  0.5477944    0.00000       Uiso       1.00
       H29          H  0.5957404  0.5225717  0.5782244    0.00000       Uiso       1.00
       H30          H  0.5617939  0.3551238  0.5756841    0.00000       Uiso       1.00
       H31          H  0.3676576  0.5197418  0.5408404    0.00000       Uiso       1.00
       H32          H  0.4025472  0.5669568  0.5934268    0.00000       Uiso       1.00
       C50          C  0.4452118  0.5328671  0.4041681    0.00000       Uiso       1.00
       C51          C  0.4554494  0.5022681  0.4217429    0.00000       Uiso       1.00
       C52          C  0.4732749  0.4916416  0.4519776    0.00000       Uiso       1.00
       C53          C  0.4533273  0.5524970  0.4179392    0.00000       Uiso       1.00
       C54          C  0.4711329  0.5418684  0.4481698    0.00000       Uiso       1.00
       C55          C  0.4822301  0.5109633  0.4656352    0.00000       Uiso       1.00
       H33          H  0.5252863  0.4663495  0.4713150    0.00000       Uiso       1.00
       H34          H  0.5223085  0.5215378  0.4651227    0.00000       Uiso       1.00
       H35          H  0.4458692  0.5762322  0.4053110    0.00000       Uiso       1.00
       H36          H  0.4490327  0.4866456  0.4123913    0.00000       Uiso       1.00
       C56          C  0.5575089  0.4052792  0.5356990    0.00000       Uiso       1.00
       C57          C  0.5490924  0.4232360  0.5056585    0.00000       Uiso       1.00
       C58          C  0.5304409  0.4530839  0.4941867    0.00000       Uiso       1.00
       C59          C  0.5466926  0.4182762  0.5538926    0.00000       Uiso       1.00
       C60          C  0.5280216  0.4481288  0.5423998    0.00000       Uiso       1.00
       C61          C  0.5187885  0.4659342  0.5119319    0.00000       Uiso       1.00
       H37          H  0.4796737  0.4682499  0.4649161    0.00000       Uiso       1.00
       H38          H  0.4763242  0.4649004  0.5169076    0.00000       Uiso       1.00
       H39          H  0.5532872  0.4056530  0.5774404    0.00000       Uiso       1.00
       H40          H  0.5569736  0.4142026  0.4909094    0.00000       Uiso       1.00
       C62          C  0.5552381  0.5403804  0.5235029    0.00000       Uiso       1.00
       C63          C  0.5460465  0.5309096  0.5442980    0.00000       Uiso       1.00
       C64          C  0.5281036  0.5187013  0.5365533    0.00000       Uiso       1.00
       C65          C  0.5459348  0.5370817  0.4947453    0.00000       Uiso       1.00
       C66          C  0.5279705  0.5248891  0.4869995    0.00000       Uiso       1.00
       C67          C  0.5179407  0.5163684  0.5073524    0.00000       Uiso       1.00
       H41          H  0.4768573  0.5526997  0.5122642    0.00000       Uiso       1.00
       H42          H  0.4760600  0.5580527  0.4580743    0.00000       Uiso       1.00
       H43          H  0.5531911  0.5430344  0.4784719    0.00000       Uiso       1.00
       H44          H  0.5527624  0.5329056  0.5667139    0.00000       Uiso       1.00
       C68          C  0.4420460  0.5214709  0.5366360    0.00000       Uiso       1.00
       C69          C  0.4519299  0.5423713  0.5296298    0.00000       Uiso       1.00
       C70          C  0.4707393  0.5353420  0.5186285    0.00000       Uiso       1.00
       C71          C  0.4515365  0.4933559  0.5321022    0.00000       Uiso       1.00
       C72          C  0.4703250  0.4863492  0.5210828    0.00000       Uiso       1.00
       C73          C  0.4810455  0.5067383  0.5150779    0.00000       Uiso       1.00
       H45          H  0.5223319  0.5107070  0.5536898    0.00000       Uiso       1.00
       H46          H  0.5211682  0.4575200  0.5577025    0.00000       Uiso       1.00
       H47          H  0.4444000  0.4766541  0.5370627    0.00000       Uiso       1.00
       H48          H  0.4445003  0.5646653  0.5317200    0.00000       Uiso       1.00
       C74          C  0.1651667  0.6775551  0.6322634    0.00000       Uiso       1.00
       C75          C  0.1566608  0.7060080  0.6359997    0.00000       Uiso       1.00
       C76          C  0.1383528  0.7141998  0.6476943    0.00000       Uiso       1.00
       C77          C  0.1550366  0.6574256  0.6399860    0.00000       Uiso       1.00
       C78          C  0.1368226  0.6654178  0.6518089    0.00000       Uiso       1.00
       C79          C  0.1282063  0.6939479  0.6559368    0.00000       Uiso       1.00
       H49          H  0.8659243  0.9807666  0.6301711    0.00000       Uiso       1.00
       H50          H  0.8554510  0.6756605  0.6551726    0.00000       Uiso       1.00
       H51          H  0.1617113  0.6341553  0.6370125    0.00000       Uiso       1.00
       H52          H  0.1646727  0.7227350  0.6297442    0.00000       Uiso       1.00
       C80          C  0.8330137  0.0319295  0.6559893    0.00000       Uiso       1.00
       C81          C  0.8413802  0.0195195  0.6360370    0.00000       Uiso       1.00
       C82          C  0.8597778  0.9896182  0.6461916    0.00000       Uiso       1.00
       C83          C  0.8434714  0.0143658  0.6863666    0.00000       Uiso       1.00
       C84          C  0.8619734  0.9844694  0.6967050    0.00000       Uiso       1.00
       C85          C  0.8703546  0.9715394  0.6767201    0.00000       Uiso       1.00
       H53          H  0.1324794  0.7361885  0.6508313    0.00000       Uiso       1.00
       H54          H  0.1453475  0.7040292  0.9669201    0.00000       Uiso       1.00
       H55          H  0.8369138  0.0241550  0.7029668    0.00000       Uiso       1.00
       H56          H  0.8331009  0.0335517  0.6112013    0.00000       Uiso       1.00
       C86          C  0.8203512  0.6531457  0.6870703    0.00000       Uiso       1.00
       C87          C  0.8314634  0.6551558  0.7158414    0.00000       Uiso       1.00
       C88          C  0.8511871  0.6647055  0.7229455    0.00000       Uiso       1.00
       C89          C  0.8293721  0.6603096  0.6655118    0.00000       Uiso       1.00
       C90          C  0.8491842  0.6697505  0.6725194    0.00000       Uiso       1.00
       C91          C  0.8603520  0.6722434  0.7013550    0.00000       Uiso       1.00
       H57          H  0.1426910  0.6168975  0.9737474    0.00000       Uiso       1.00
       H58          H  0.1292774  0.6493478  0.6574094    0.00000       Uiso       1.00
       H59          H  0.8205705  0.6587208  0.6419578    0.00000       Uiso       1.00
       H60          H  0.8243836  0.6493241  0.7337233    0.00000       Uiso       1.00
       C92          C  0.1814711  0.6373729  0.0246710    0.00000       Uiso       1.00
       C93          C  0.1704984  0.6193198  0.0121159    0.00000       Uiso       1.00
       C94          C  0.1504938  0.6315840  0.9830755    0.00000       Uiso       1.00
       C95          C  0.1721226  0.6679022  0.0081295    0.00000       Uiso       1.00
       C96          C  0.1522165  0.6802635  0.9790472    0.00000       Uiso       1.00
       C97          C  0.1410912  0.6622738  0.9659822    0.00000       Uiso       1.00
       H61          H  0.8594543  0.6658624  0.7454914    0.00000       Uiso       1.00
       H62          H  0.8693830  0.9712566  0.7202440    0.00000       Uiso       1.00
       C98          C  1.0000004  0.7500004  0.7499985    0.00000       Uiso       1.00
       H63          H  0.1808069  0.6829721  0.0180568    0.00000       Uiso       1.00
       H64          H  0.1778456  0.5943924  0.0253251    0.00000       Uiso       1.00
       C99          C  0.1089614  0.7023683  0.6689440    0.00000       Uiso       1.00
      C100          C  0.0896723  0.7318639  0.6578643    0.00000       Uiso       1.00
      C101          C  0.0717554  0.7397053  0.6701305    0.00000       Uiso       1.00
      C102          C  0.1097338  0.6809689  0.6926827    0.00000       Uiso       1.00
      C103          C  0.0918405  0.6888075  0.7049686    0.00000       Uiso       1.00
      C104          C  0.0725327  0.7183126  0.6939037    0.00000       Uiso       1.00
       H65          H  0.9032848  0.8764358  0.6652754    0.00000       Uiso       1.00
       H66          H  0.9342725  0.6757352  0.6972402    0.00000       Uiso       1.00
       H67          H  0.1245420  0.6582268  0.7022230    0.00000       Uiso       1.00
       H68          H  0.0881598  0.7488132  0.6392792    0.00000       Uiso       1.00
      C105          C  0.8897991  0.9394229  0.6875203    0.00000       Uiso       1.00
      C106          C  0.8877847  0.9204835  0.6694725    0.00000       Uiso       1.00
      C107          C  0.9058664  0.8904228  0.6795597    0.00000       Uiso       1.00
      C108          C  0.9105235  0.9273145  0.7159807    0.00000       Uiso       1.00
      C109          C  0.9286283  0.8972526  0.7260664    0.00000       Uiso       1.00
      C110          C  0.9266101  0.8782808  0.7080323    0.00000       Uiso       1.00
       H69          H  0.0570040  0.7624878  0.6606373    0.00000       Uiso       1.00
       H70          H  0.1018021  0.7238728  0.8647459    0.00000       Uiso       1.00
       H71          H  0.9129921  0.9412998  0.7302942    0.00000       Uiso       1.00
       H72          H  0.8718823  0.9287413  0.6477132    0.00000       Uiso       1.00
      C111          C  0.8812312  0.6828305  0.7088116    0.00000       Uiso       1.00
      C112          C  0.8822554  0.7023042  0.7264047    0.00000       Uiso       1.00
      C113          C  0.9016835  0.7123364  0.7333000    0.00000       Uiso       1.00
      C114          C  0.9003075  0.6736819  0.6983787    0.00000       Uiso       1.00
      C115          C  0.9197595  0.6836893  0.7052979    0.00000       Uiso       1.00
      C116          C  0.9207809  0.7031989  0.7228746    0.00000       Uiso       1.00
       H73          H  0.0642543  0.6727884  0.8942741    0.00000       Uiso       1.00
       H74          H  0.0934689  0.6718646  0.7236529    0.00000       Uiso       1.00
       H75          H  0.9004443  0.6583000  0.6852509    0.00000       Uiso       1.00
       H76          H  0.8676887  0.7103180  0.7343647    0.00000       Uiso       1.00
      C117          C  0.1200123  0.6753835  0.9347193    0.00000       Uiso       1.00
      C118          C  0.0995034  0.6671432  0.9277865    0.00000       Uiso       1.00
      C119          C  0.0798628  0.6793559  0.8985189    0.00000       Uiso       1.00
      C120          C  0.1202263  0.6962514  0.9114232    0.00000       Uiso       1.00
      C121          C  0.1006082  0.7084410  0.8821559    0.00000       Uiso       1.00
      C122          C  0.0800781  0.7002139  0.8751906    0.00000       Uiso       1.00
       H77          H  0.9014363  0.7278379  0.7462991    0.00000       Uiso       1.00
       H78          H  0.9444789  0.8889851  0.7478791    0.00000       Uiso       1.00
       H79          H  0.1358834  0.7027231  0.9156725    0.00000       Uiso       1.00
       H80          H  0.0984124  0.6515887  0.9451966    0.00000       Uiso       1.00
      C123          C  0.0534626  0.7267468  0.7071983    0.00000       Uiso       1.00
      C124          C  0.0446552  0.7553788  0.7109435    0.00000       Uiso       1.00
      C125          C  0.0272449  0.7630526  0.7239136    0.00000       Uiso       1.00
      C126          C  0.0443487  0.7060035  0.7170240    0.00000       Uiso       1.00
      C127          C  0.0269589  0.7136772  0.7300078    0.00000       Uiso       1.00
      C128          C  0.0172798  0.7427637  0.7328079    0.00000       Uiso       1.00
       H81          H  0.9751943  0.7924783  0.6922024    0.00000       Uiso       1.00
       H82          H  0.9754943  0.7385003  0.6974133    0.00000       Uiso       1.00
       H83          H  0.0506972  0.6836826  0.7147056    0.00000       Uiso       1.00
       H84          H  0.0518879  0.7715974  0.7047306    0.00000       Uiso       1.00
      C129          C  0.9458914  0.8460207  0.7189052    0.00000       Uiso       1.00
      C130          C  0.9532610  0.8324863  0.6987227    0.00000       Uiso       1.00
      C131          C  0.9708542  0.8021894  0.7087769    0.00000       Uiso       1.00
      C132          C  0.9566545  0.8281434  0.7494649    0.00000       Uiso       1.00
      C133          C  0.9742672  0.7978426  0.7595160    0.00000       Uiso       1.00
      C134          C  0.9824790  0.7844123  0.7396173    0.00000       Uiso       1.00
       H85          H  0.0219747  0.7848144  0.7275707    0.00000       Uiso       1.00
       H86          H  0.0263211  0.7780388  0.7832810    0.00000       Uiso       1.00
       H87          H  0.9508102  0.8373132  0.7655203    0.00000       Uiso       1.00
       H88          H  0.9453762  0.8453551  0.6749986    0.00000       Uiso       1.00
      C135          C  0.9415002  0.7141022  0.7301138    0.00000       Uiso       1.00
      C136          C  0.9517178  0.7182479  0.7582584    0.00000       Uiso       1.00
      C137          C  0.9706752  0.7290296  0.7647505    0.00000       Uiso       1.00
      C138          C  0.9508327  0.7212501  0.7086523    0.00000       Uiso       1.00
      C139          C  0.9698113  0.7320129  0.7151654    0.00000       Uiso       1.00
      C140          C  0.9808394  0.7351711  0.7437743    0.00000       Uiso       1.00
       H89          H  0.0214455  0.6920094  0.7920909    0.00000       Uiso       1.00
       H90          H  0.0212405  0.6965727  0.7382352    0.00000       Uiso       1.00
       H91          H  0.9428425  0.7194603  0.6863363    0.00000       Uiso       1.00
       H92          H  0.9450230  0.7131644  0.7753838    0.00000       Uiso       1.00
      C141          C  0.0591481  0.7131377  0.8437856    0.00000       Uiso       1.00
      C142          C  0.0478581  0.6952353  0.8309449    0.00000       Uiso       1.00
      C143          C  0.0286772  0.7070957  0.8014063    0.00000       Uiso       1.00
      C144          C  0.0506770  0.7432699  0.8259915    0.00000       Uiso       1.00
      C145          C  0.0315162  0.7551085  0.7964569    0.00000       Uiso       1.00
      C146          C  0.0194037  0.7376555  0.7837956    0.00000       Uiso       1.00
       H93          H  0.9772481  0.7329089  0.7862687    0.00000       Uiso       1.00
       H94          H  0.9810843  0.7846742  0.7829263    0.00000       Uiso       1.00
       H95          H  0.0589055  0.7578100  0.8349046    0.00000       Uiso       1.00
       H96          H  0.0544554  0.6716337  0.8434280    0.00000       Uiso       1.00
      C147          C  0.7327175  0.6264969  0.6500339    0.00000       Uiso       1.00
      C148          C  0.7541383  0.6324151  0.6604678    0.00000       Uiso       1.00
       H97          H  0.7616087  0.6305833  0.6840261    0.00000       Uiso       1.00
        N1          N  0.6909903  0.6188235  0.5823729    0.00000       Uiso       1.00
      C149          C  0.7652662  0.6400139  0.6409755    0.00000       Uiso       1.00
      C150          C  0.7215947  0.6281539  0.6198791    0.00000       Uiso       1.00
      C151          C  0.7004028  0.6196508  0.6096440    0.00000       Uiso       1.00
       H98          H  0.6926081  0.6140066  0.6252708    0.00000       Uiso       1.00
        N2          N  0.7987524  0.6462706  0.6790491    0.00000       Uiso       1.00
      C152          C  0.7874620  0.6466535  0.6516972    0.00000       Uiso       1.00
       H99          H  0.7943677  0.6521540  0.6350293    0.00000       Uiso       1.00
      C153          C  0.7320808  0.6355774  0.6001630    0.00000       Uiso       1.00
      C154          C  0.7534994  0.6415272  0.6104234    0.00000       Uiso       1.00
      H100          H  0.7238362  0.6364272  0.5768058    0.00000       Uiso       1.00
      C155          C  0.7432161  0.1441016  0.5998616    0.00000       Uiso       1.00
      C156          C  0.7652135  0.1172555  0.6122254    0.00000       Uiso       1.00
      H101          H  0.7737513  0.1113713  0.5970725    0.00000       Uiso       1.00
        N3          N  0.6981018  0.1936332  0.6219246    0.00000       Uiso       1.00
      C157          C  0.7755443  0.0993134  0.6429850    0.00000       Uiso       1.00
      C158          C  0.7307141  0.1538319  0.6176117    0.00000       Uiso       1.00
      C159          C  0.7088555  0.1830857  0.6052421    0.00000       Uiso       1.00
      H102          H  0.7017074  0.1959324  0.5817693    0.00000       Uiso       1.00
        N4          N  0.8109262  0.0598619  0.6410720    0.00000       Uiso       1.00
      C160          C  0.7983523  0.0709817  0.6558936    0.00000       Uiso       1.00
      H103          H  0.8045604  0.0591602  0.6794470    0.00000       Uiso       1.00
      C161          C  0.7403904  0.1366899  0.6479145    0.00000       Uiso       1.00
      C162          C  0.7623780  0.1098181  0.6604455    0.00000       Uiso       1.00
      H104          H  0.7310580  0.1443124  0.6620425    0.00000       Uiso       1.00
      C163          C  0.2554546  0.6436025  0.6107805    0.00000       Uiso       1.00
      C164          C  0.2333497  0.6533030  0.6154287    0.00000       Uiso       1.00
      H105          H  0.2249234  0.6769608  0.6129464    0.00000       Uiso       1.00
        N5          N  0.3004585  0.5764575  0.6061938    0.00000       Uiso       1.00
      C165          C  0.2227790  0.6329812  0.6226352    0.00000       Uiso       1.00
      C166          C  0.2678281  0.6133861  0.6133571    0.00000       Uiso       1.00
      C167          C  0.2898104  0.6038445  0.6061677    0.00000       Uiso       1.00
      H106          H  0.2971408  0.6200885  0.6007764    0.00000       Uiso       1.00
        N6          N  0.1873839  0.6703126  0.6266519    0.00000       Uiso       1.00
      C168          C  0.1998559  0.6429477  0.6279489    0.00000       Uiso       1.00
      H107          H  0.1934656  0.6256822  0.6332561    0.00000       Uiso       1.00
      C169          C  0.2579157  0.5928642  0.6204249    0.00000       Uiso       1.00
      C170          C  0.2358194  0.6023883  0.6251067    0.00000       Uiso       1.00
      H108          H  0.2671491  0.5694361  0.6219796    0.00000       Uiso       1.00
      C171          C  0.2686145  0.5858022  0.1393180    0.00000       Uiso       1.00
      C172          C  0.2473011  0.5970296  0.1118721    0.00000       Uiso       1.00
      H109          H  0.2397193  0.5810879  0.1059490    0.00000       Uiso       1.00
        N7          N  0.3104521  0.6110889  0.1895027    0.00000       Uiso       1.00
      C173          C  0.2364131  0.6276946  0.0933983    0.00000       Uiso       1.00
      C174          C  0.2798657  0.6046314  0.1491461    0.00000       Uiso       1.00
      C175          C  0.3009341  0.5934221  0.1789401    0.00000       Uiso       1.00
      H110          H  0.3085464  0.5699757  0.1921775    0.00000       Uiso       1.00
        N8          N  0.2029402  0.6235582  0.0532209    0.00000       Uiso       1.00
      C176          C  0.2143324  0.6394203  0.0644543    0.00000       Uiso       1.00
      H111          H  0.2076091  0.6630067  0.0522615    0.00000       Uiso       1.00
      C177          C  0.2696157  0.6348717  0.1314916    0.00000       Uiso       1.00
      C178          C  0.2483058  0.6462697  0.1040184    0.00000       Uiso       1.00
      H112          H  0.2779593  0.6498275  0.1391661    0.00000       Uiso       1.00
      H113          H  0.7833897  0.6386197  0.5941549    0.00000       Uiso       1.00
      H114          H  0.7494094  0.6647475  0.5651818    0.00000       Uiso       1.00
        N9          N  0.7628101  0.6488576  0.5882260    0.00000       Uiso       1.00
      H115          H  0.7165236  0.5992527  0.6705924    0.00000       Uiso       1.00
      H116          H  0.7203962  0.6307371  0.6870192    0.00000       Uiso       1.00
       N10          N  0.7224271  0.6181954  0.6708000    0.00000       Uiso       1.00
      H117          H  0.7910780  0.0844847  0.7074780    0.00000       Uiso       1.00
      H118          H  0.7569018  0.0912087  0.7006641    0.00000       Uiso       1.00
       N11          N  0.7707589  0.0939603  0.6919322    0.00000       Uiso       1.00
      H119          H  0.7271688  0.1868863  0.5623742    0.00000       Uiso       1.00
      H120          H  0.7330432  0.1507038  0.5510651    0.00000       Uiso       1.00
       N12          N  0.7337539  0.1619241  0.5687239    0.00000       Uiso       1.00
      H121          H  0.2068474  0.5843292  0.6211290    0.00000       Uiso       1.00
      H122          H  0.2408927  0.5567168  0.6486686    0.00000       Uiso       1.00
       N13          N  0.2271950  0.5793895  0.6321741    0.00000       Uiso       1.00
      H123          H  0.2719042  0.6650047  0.5845807    0.00000       Uiso       1.00
      H124          H  0.2659095  0.6819794  0.6149479    0.00000       Uiso       1.00
       N14          N  0.2651638  0.6651752  0.6028296    0.00000       Uiso       1.00
      H125          H  0.2186876  0.6925697  0.0772321    0.00000       Uiso       1.00
      H126          H  0.2527988  0.6873302  0.0854795    0.00000       Uiso       1.00
       N15          N  0.2392388  0.6777959  0.0876617    0.00000       Uiso       1.00
      H127          H  0.2844060  0.5488595  0.1824467    0.00000       Uiso       1.00
      H128          H  0.2806539  0.5365829  0.1469617    0.00000       Uiso       1.00
       N16          N  0.2786580  0.5547086  0.1576405    0.00000       Uiso       1.00
