data_56
_audit_creation_date              0000-00-00
_audit_creation_method            'LanYouShi'
_symmetry_space_group_name_H-M    'P1'
_cell_length_a                    69.5460968
_cell_length_b                    57.3003998
_cell_length_c                    57.3003998
_cell_angle_alpha                 85.3522034
_cell_angle_beta                  67.7546005
_cell_angle_gamma                 112.2460022
loop_
_atom_site_label
_atom_site_type_symbol
_atom_site_fract_x
_atom_site_fract_y
_atom_site_fract_z
_atom_site_U_iso_or_equiv
_atom_site_adp_type
_atom_site_occupancy
        C1          C  0.3407215  0.2560266  0.5863090    0.00000       Uiso       1.00
        C2          C  0.3496717  0.2698491  0.5604121    0.00000       Uiso       1.00
        C3          C  0.3672760  0.2957155  0.5508739    0.00000       Uiso       1.00
        C4          C  0.3496720  0.2681385  0.6025664    0.00000       Uiso       1.00
        C5          C  0.3671883  0.2940173  0.5931922    0.00000       Uiso       1.00
        C6          C  0.3762590  0.3082834  0.5671728    0.00000       Uiso       1.00
        H1          H  0.6261852  0.5306826  0.3058297    0.00000       Uiso       1.00
        H2          H  0.6264366  0.5201255  0.5705577    0.00000       Uiso       1.00
        H3          H  0.3426147  0.2571286  0.6237227    0.00000       Uiso       1.00
        H4          H  0.3426141  0.2602474  0.5468633    0.00000       Uiso       1.00
        C7          C  0.6592750  0.5863058  0.2560290    0.00000       Uiso       1.00
        C8          C  0.6503246  0.5604088  0.2698516    0.00000       Uiso       1.00
        C9          C  0.6328084  0.5508769  0.2957367    0.00000       Uiso       1.00
       C10          C  0.6503249  0.6025634  0.2681407    0.00000       Uiso       1.00
       C11          C  0.6327205  0.5931123  0.2940033    0.00000       Uiso       1.00
       C12          C  0.6237376  0.5671053  0.3082879    0.00000       Uiso       1.00
        H5          H  0.3735594  0.3060665  0.5308620    0.00000       Uiso       1.00
        H6          H  0.3738127  0.5710503  0.5199216    0.00000       Uiso       1.00
        H7          H  0.6573824  0.6237198  0.2571307    0.00000       Uiso       1.00
        H8          H  0.6573819  0.5468598  0.2602501    0.00000       Uiso       1.00
       C13          C  0.6592769  0.5729690  0.5846953    0.00000       Uiso       1.00
       C14          C  0.6503267  0.5899158  0.5798230    0.00000       Uiso       1.00
       C15          C  0.6328108  0.5819317  0.5714534    0.00000       Uiso       1.00
       C16          C  0.6503264  0.5477612  0.5815339    0.00000       Uiso       1.00
       C17          C  0.6327215  0.5396076  0.5732762    0.00000       Uiso       1.00
       C18          C  0.6237394  0.5566321  0.5679737    0.00000       Uiso       1.00
        H9          H  0.3735639  0.5674954  0.5955774    0.00000       Uiso       1.00
       H10          H  0.3738117  0.3027603  0.6062675    0.00000       Uiso       1.00
       H11          H  0.6573837  0.5336622  0.5854865    0.00000       Uiso       1.00
       H12          H  0.6573842  0.6105221  0.5823671    0.00000       Uiso       1.00
       C19          C  0.3407237  0.5846949  0.5729698    0.00000       Uiso       1.00
       C20          C  0.3496741  0.5798227  0.5899164    0.00000       Uiso       1.00
       C21          C  0.3672791  0.5715616  0.5818497    0.00000       Uiso       1.00
       C22          C  0.3496738  0.5815333  0.5477622    0.00000       Uiso       1.00
       C23          C  0.3671899  0.5731705  0.5396200    0.00000       Uiso       1.00
       C24          C  0.3762614  0.5679763  0.5565680    0.00000       Uiso       1.00
       H13          H  0.6261880  0.5955028  0.5679825    0.00000       Uiso       1.00
       H14          H  0.6264370  0.6063103  0.3030066    0.00000       Uiso       1.00
       C25          C  0.5000001  0.4999999  0.5000012    0.00000       Uiso       1.00
       H15          H  0.3426163  0.5854857  0.5336632    0.00000       Uiso       1.00
       H16          H  0.3426169  0.5823669  0.6105227    0.00000       Uiso       1.00
       C26          C  0.3947874  0.3360792  0.5572242    0.00000       Uiso       1.00
       C27          C  0.4130717  0.3454420  0.5317712    0.00000       Uiso       1.00
       C28          C  0.4303282  0.3714585  0.5224877    0.00000       Uiso       1.00
       C29          C  0.3943363  0.3535870  0.5730920    0.00000       Uiso       1.00
       C30          C  0.4115718  0.3796020  0.5638095    0.00000       Uiso       1.00
       C31          C  0.4298742  0.3889940  0.5383454    0.00000       Uiso       1.00
       H17          H  0.5897276  0.5182807  0.3949278    0.00000       Uiso       1.00
       H18          H  0.5557075  0.4952029  0.5688890    0.00000       Uiso       1.00
       H19          H  0.3803393  0.3473005  0.5925883    0.00000       Uiso       1.00
       H20          H  0.4142663  0.3324768  0.5191337    0.00000       Uiso       1.00
       C32          C  0.6052091  0.5570213  0.3360888    0.00000       Uiso       1.00
       C33          C  0.6056619  0.5401142  0.3549276    0.00000       Uiso       1.00
       C34          C  0.5884272  0.5307497  0.3809460    0.00000       Uiso       1.00
       C35          C  0.5869240  0.5642242  0.3441252    0.00000       Uiso       1.00
       C36          C  0.5696681  0.5548401  0.3701461    0.00000       Uiso       1.00
       C37          C  0.5701238  0.5379438  0.3890114    0.00000       Uiso       1.00
       H21          H  0.4442763  0.3777473  0.5029525    0.00000       Uiso       1.00
       H22          H  0.4102740  0.5177041  0.5132995    0.00000       Uiso       1.00
       H23          H  0.5857288  0.5768080  0.3301360    0.00000       Uiso       1.00
       H24          H  0.6196606  0.5345185  0.3496599    0.00000       Uiso       1.00
       C38          C  0.6052110  0.5481881  0.5587013    0.00000       Uiso       1.00
       C39          C  0.6056683  0.5655456  0.5394034    0.00000       Uiso       1.00
       C40          C  0.5884320  0.5576745  0.5306217    0.00000       Uiso       1.00
       C41          C  0.5869200  0.5227032  0.5689581    0.00000       Uiso       1.00
       C42          C  0.5696620  0.5148312  0.5601963    0.00000       Uiso       1.00
       C43          C  0.5701224  0.5321811  0.5408688    0.00000       Uiso       1.00
       H25          H  0.4442908  0.5665512  0.5527505    0.00000       Uiso       1.00
       H26          H  0.4102750  0.3925645  0.5764343    0.00000       Uiso       1.00
       H27          H  0.5857211  0.5089272  0.5841486    0.00000       Uiso       1.00
       H28          H  0.6196700  0.5851378  0.5306680    0.00000       Uiso       1.00
       C44          C  0.3947899  0.5587096  0.5479873    0.00000       Uiso       1.00
       C45          C  0.4130797  0.5676395  0.5551468    0.00000       Uiso       1.00
       C46          C  0.4303381  0.5588827  0.5471712    0.00000       Uiso       1.00
       C47          C  0.3943342  0.5407444  0.5325777    0.00000       Uiso       1.00
       C48          C  0.4115710  0.5319670  0.5246234    0.00000       Uiso       1.00
       C49          C  0.4298795  0.5408867  0.5317744    0.00000       Uiso       1.00
       H29          H  0.5897312  0.5714398  0.5153371    0.00000       Uiso       1.00
       H30          H  0.5557188  0.5605224  0.3754131    0.00000       Uiso       1.00
       H31          H  0.3803337  0.5330287  0.5270843    0.00000       Uiso       1.00
       H32          H  0.4142780  0.5818049  0.5665835    0.00000       Uiso       1.00
       C50          C  0.4482544  0.4169079  0.5283567    0.00000       Uiso       1.00
       C51          C  0.4574883  0.4309998  0.5022869    0.00000       Uiso       1.00
       C52          C  0.4743025  0.4572169  0.4930858    0.00000       Uiso       1.00
       C53          C  0.4563371  0.4299958  0.5449365    0.00000       Uiso       1.00
       C54          C  0.4731330  0.4562087  0.5357349    0.00000       Uiso       1.00
       C55          C  0.4831446  0.4702131  0.5093435    0.00000       Uiso       1.00
       H33          H  0.5218527  0.4741521  0.4687570    0.00000       Uiso       1.00
       H34          H  0.5199501  0.4712840  0.5155933    0.00000       Uiso       1.00
       H35          H  0.4496395  0.4199495  0.5651599    0.00000       Uiso       1.00
       H36          H  0.4511317  0.4219817  0.4891433    0.00000       Uiso       1.00
       C56          C  0.5517434  0.5280334  0.4169217    0.00000       Uiso       1.00
       C57          C  0.5436620  0.5025681  0.4317155    0.00000       Uiso       1.00
       C58          C  0.5268671  0.4935277  0.4579230    0.00000       Uiso       1.00
       C59          C  0.5425095  0.5441696  0.4293007    0.00000       Uiso       1.00
       C60          C  0.5256965  0.5351107  0.4555128    0.00000       Uiso       1.00
       C61          C  0.5168558  0.5092462  0.4702188    0.00000       Uiso       1.00
       H37          H  0.4800451  0.4675218  0.4732362    0.00000       Uiso       1.00
       H38          H  0.4781406  0.5124384  0.4723796    0.00000       Uiso       1.00
       H39          H  0.5488672  0.5641991  0.4189375    0.00000       Uiso       1.00
       H40          H  0.5503629  0.4895346  0.4230158    0.00000       Uiso       1.00
       C62          C  0.5517427  0.5237132  0.5313382    0.00000       Uiso       1.00
       C63          C  0.5436620  0.5410975  0.5246244    0.00000       Uiso       1.00
       C64          C  0.5268674  0.5333416  0.5152122    0.00000       Uiso       1.00
       C65          C  0.5425092  0.4983435  0.5281932    0.00000       Uiso       1.00
       C66          C  0.5256953  0.4905869  0.5187959    0.00000       Uiso       1.00
       C67          C  0.5168548  0.5076103  0.5129303    0.00000       Uiso       1.00
       H41          H  0.4800529  0.5125330  0.5467118    0.00000       Uiso       1.00
       H42          H  0.4781507  0.4656954  0.5494748    0.00000       Uiso       1.00
       H43          H  0.5488652  0.4846725  0.5322047    0.00000       Uiso       1.00
       H44          H  0.5503595  0.5608320  0.5266237    0.00000       Uiso       1.00
       C68          C  0.4482587  0.5313520  0.5233822    0.00000       Uiso       1.00
       C69          C  0.4574942  0.5264976  0.5402175    0.00000       Uiso       1.00
       C70          C  0.4743064  0.5170918  0.5326073    0.00000       Uiso       1.00
       C71          C  0.4563362  0.5263382  0.4987229    0.00000       Uiso       1.00
       C72          C  0.4731294  0.5169171  0.4911325    0.00000       Uiso       1.00
       C73          C  0.4831440  0.5129298  0.5075113    0.00000       Uiso       1.00
       H45          H  0.5218529  0.5477045  0.5093969    0.00000       Uiso       1.00
       H46          H  0.5199540  0.5486678  0.4644655    0.00000       Uiso       1.00
       H47          H  0.4496375  0.5296825  0.4851964    0.00000       Uiso       1.00
       H48          H  0.4511416  0.5291687  0.5597138    0.00000       Uiso       1.00
       C74          C  0.1592780  0.6653051  0.6770307    0.00000       Uiso       1.00
       C75          C  0.1503278  0.6684667  0.7022384    0.00000       Uiso       1.00
       C76          C  0.1327238  0.6767254  0.7103915    0.00000       Uiso       1.00
       C77          C  0.1503277  0.6701775  0.6600840    0.00000       Uiso       1.00
       C78          C  0.1328116  0.6785465  0.6680682    0.00000       Uiso       1.00
       C79          C  0.1237409  0.6820272  0.6933673    0.00000       Uiso       1.00
       H49          H  0.8738152  0.6437342  0.9472378    0.00000       Uiso       1.00
       H50          H  0.8735648  0.6544231  0.6825039    0.00000       Uiso       1.00
       H51          H  0.1573851  0.6676333  0.6394777    0.00000       Uiso       1.00
       H52          H  0.1573852  0.6645142  0.7163373    0.00000       Uiso       1.00
       C80          C  0.8407257  0.6636931  0.9939709    0.00000       Uiso       1.00
       C81          C  0.8496759  0.6474357  0.9818592    0.00000       Uiso       1.00
       C82          C  0.8671921  0.6568098  0.9559805    0.00000       Uiso       1.00
       C83          C  0.8496760  0.6895902  0.9801484    0.00000       Uiso       1.00
       C84          C  0.8672804  0.6991283  0.9542823    0.00000       Uiso       1.00
       C85          C  0.8762633  0.6828294  0.9417147    0.00000       Uiso       1.00
       H53          H  0.1264404  0.6794453  0.7298729    0.00000       Uiso       1.00
       H54          H  0.1261900  0.9441720  0.7193153    0.00000       Uiso       1.00
       H55          H  0.8426188  0.7031391  0.9897499    0.00000       Uiso       1.00
       H56          H  0.8426183  0.6262792  0.9928692    0.00000       Uiso       1.00
       C86          C  0.8407252  0.6770310  0.6653039    0.00000       Uiso       1.00
       C87          C  0.8496755  0.7022388  0.6684656    0.00000       Uiso       1.00
       C88          C  0.8671913  0.7103807  0.6768288    0.00000       Uiso       1.00
       C89          C  0.8496753  0.6600843  0.6701763    0.00000       Uiso       1.00
       C90          C  0.8672802  0.6681509  0.6784375    0.00000       Uiso       1.00
       C91          C  0.8762625  0.6934325  0.6820231    0.00000       Uiso       1.00
       H57          H  0.1264392  0.9469953  0.6436890    0.00000       Uiso       1.00
       H58          H  0.1261883  0.6820161  0.6544972    0.00000       Uiso       1.00
       H59          H  0.8426178  0.6394780  0.6676322    0.00000       Uiso       1.00
       H60          H  0.8426182  0.7163379  0.6645129    0.00000       Uiso       1.00
       C92          C  0.1592795  0.9939731  0.6636923    0.00000       Uiso       1.00
       C93          C  0.1503292  0.9818612  0.6474348    0.00000       Uiso       1.00
       C94          C  0.1327240  0.9559986  0.6568863    0.00000       Uiso       1.00
       C95          C  0.1503293  0.9801506  0.6895891    0.00000       Uiso       1.00
       C96          C  0.1328130  0.9542654  0.6991212    0.00000       Uiso       1.00
       C97          C  0.1237415  0.9417140  0.6828933    0.00000       Uiso       1.00
       H61          H  0.8738143  0.7300791  0.6789495    0.00000       Uiso       1.00
       H62          H  0.8735642  0.7191405  0.9439313    0.00000       Uiso       1.00
       C98          C  0.0000013  0.7500007  0.7499990    0.00000       Uiso       1.00
       H63          H  0.1573868  0.9897522  0.7031381    0.00000       Uiso       1.00
       H64          H  0.1573866  0.9928712  0.6262784    0.00000       Uiso       1.00
       C99          C  0.1052127  0.6913003  0.7018114    0.00000       Uiso       1.00
      C100          C  0.0869284  0.6810534  0.7273002    0.00000       Uiso       1.00
      C101          C  0.0696721  0.6898176  0.7351722    0.00000       Uiso       1.00
      C102          C  0.1056641  0.7105895  0.6844502    0.00000       Uiso       1.00
      C103          C  0.0884288  0.7193724  0.6923204    0.00000       Uiso       1.00
      C104          C  0.0701263  0.7091364  0.7178187    0.00000       Uiso       1.00
       H65          H  0.9102731  0.6735709  0.8574322    0.00000       Uiso       1.00
       H66          H  0.9442939  0.6972535  0.6834462    0.00000       Uiso       1.00
       H67          H  0.1196612  0.7193184  0.6648548    0.00000       Uiso       1.00
       H68          H  0.0857335  0.6658698  0.7410802    0.00000       Uiso       1.00
      C105          C  0.8947918  0.6927782  0.9139193    0.00000       Uiso       1.00
      C106          C  0.8943390  0.6769117  0.8964106    0.00000       Uiso       1.00
      C107          C  0.9115736  0.6861941  0.8703956    0.00000       Uiso       1.00
      C108          C  0.9130771  0.7182304  0.9045576    0.00000       Uiso       1.00
      C109          C  0.9303330  0.7275137  0.8785410    0.00000       Uiso       1.00
      C110          C  0.9298773  0.7116574  0.8610048    0.00000       Uiso       1.00
       H69          H  0.0557240  0.6811348  0.7548045    0.00000       Uiso       1.00
       H70          H  0.0897280  0.8550717  0.7317184    0.00000       Uiso       1.00
       H71          H  0.9142724  0.7308671  0.9175234    0.00000       Uiso       1.00
       H72          H  0.8803401  0.6574165  0.9026965    0.00000       Uiso       1.00
      C111          C  0.8947909  0.7020125  0.6912902    0.00000       Uiso       1.00
      C112          C  0.8943336  0.7174189  0.7092584    0.00000       Uiso       1.00
      C113          C  0.9115699  0.7253720  0.7180368    0.00000       Uiso       1.00
      C114          C  0.9130815  0.6948549  0.6823582    0.00000       Uiso       1.00
      C115          C  0.9303396  0.7028297  0.6911159    0.00000       Uiso       1.00
      C116          C  0.9298792  0.7182230  0.7091147    0.00000       Uiso       1.00
       H73          H  0.0557119  0.8745973  0.6894922    0.00000       Uiso       1.00
       H74          H  0.0897258  0.7346504  0.6785495    0.00000       Uiso       1.00
       H75          H  0.9142804  0.6834204  0.6681909    0.00000       Uiso       1.00
       H76          H  0.8803319  0.7229099  0.7169757    0.00000       Uiso       1.00
      C117          C  0.1052128  0.9139131  0.6929783    0.00000       Uiso       1.00
      C118          C  0.0869230  0.9058780  0.6857824    0.00000       Uiso       1.00
      C119          C  0.0696644  0.8798584  0.6951692    0.00000       Uiso       1.00
      C120          C  0.1056683  0.8950737  0.7098816    0.00000       Uiso       1.00
      C121          C  0.0884312  0.8690559  0.7192481    0.00000       Uiso       1.00
      C122          C  0.0701227  0.8609919  0.7120622    0.00000       Uiso       1.00
       H77          H  0.9102708  0.7366917  0.7323034    0.00000       Uiso       1.00
       H78          H  0.9442825  0.7470483  0.8722506    0.00000       Uiso       1.00
       H79          H  0.1196686  0.9003403  0.7154745    0.00000       Uiso       1.00
       H80          H  0.0857250  0.9198685  0.6732030    0.00000       Uiso       1.00
      C123          C  0.0517463  0.7186671  0.7262876    0.00000       Uiso       1.00
      C124          C  0.0425125  0.7218125  0.7516578    0.00000       Uiso       1.00
      C125          C  0.0256985  0.7312096  0.7594135    0.00000       Uiso       1.00
      C126          C  0.0436639  0.7253788  0.7089041    0.00000       Uiso       1.00
      C127          C  0.0268682  0.7347893  0.7166600    0.00000       Uiso       1.00
      C128          C  0.0168566  0.7370732  0.7423903    0.00000       Uiso       1.00
       H81          H  0.9781482  0.7005270  0.7843000    0.00000       Uiso       1.00
       H82          H  0.9800509  0.7032855  0.7374681    0.00000       Uiso       1.00
       H83          H  0.0503614  0.7233798  0.6891696    0.00000       Uiso       1.00
       H84          H  0.0488689  0.7178046  0.7653301    0.00000       Uiso       1.00
      C129          C  0.9482576  0.7216469  0.8330914    0.00000       Uiso       1.00
      C130          C  0.9563389  0.7050665  0.8200041    0.00000       Uiso       1.00
      C131          C  0.9731339  0.7142668  0.7937901    0.00000       Uiso       1.00
      C132          C  0.9574919  0.7477168  0.8189995    0.00000       Uiso       1.00
      C133          C  0.9743050  0.7569163  0.7927817    0.00000       Uiso       1.00
      C134          C  0.9831455  0.7406579  0.7797853    0.00000       Uiso       1.00
       H85          H  0.0199559  0.7344161  0.7787148    0.00000       Uiso       1.00
       H86          H  0.0218609  0.7812417  0.7758480    0.00000       Uiso       1.00
       H87          H  0.9511344  0.7608603  0.8280164    0.00000       Uiso       1.00
       H88          H  0.9496377  0.6848431  0.8300534    0.00000       Uiso       1.00
      C135          C  0.9482589  0.7266154  0.7186484    0.00000       Uiso       1.00
      C136          C  0.9563398  0.7512768  0.7236558    0.00000       Uiso       1.00
      C137          C  0.9731342  0.7588697  0.7330747    0.00000       Uiso       1.00
      C138          C  0.9574921  0.7097794  0.7235063    0.00000       Uiso       1.00
      C139          C  0.9743059  0.7173914  0.7329096    0.00000       Uiso       1.00
      C140          C  0.9831466  0.7424900  0.7370657    0.00000       Uiso       1.00
       H89          H  0.0199489  0.7855421  0.7013373    0.00000       Uiso       1.00
       H90          H  0.0218506  0.7406024  0.7022991    0.00000       Uiso       1.00
       H91          H  0.9511360  0.6902813  0.7208410    0.00000       Uiso       1.00
       H92          H  0.9496426  0.7648028  0.7203066    0.00000       Uiso       1.00
      C141          C  0.0517433  0.8330809  0.7219741    0.00000       Uiso       1.00
      C142          C  0.0425079  0.8207039  0.7058380    0.00000       Uiso       1.00
      C143          C  0.0256954  0.7944916  0.7148936    0.00000       Uiso       1.00
      C144          C  0.0436657  0.8182833  0.7474374    0.00000       Uiso       1.00
      C145          C  0.0268723  0.7920756  0.7564737    0.00000       Uiso       1.00
      C146          C  0.0168577  0.7797827  0.7407556    0.00000       Uiso       1.00
       H93          H  0.9781490  0.7776262  0.7375460    0.00000       Uiso       1.00
       H94          H  0.9800476  0.7767646  0.7824734    0.00000       Uiso       1.00
       H95          H  0.0503644  0.8269764  0.7604755    0.00000       Uiso       1.00
       H96          H  0.0488606  0.8310738  0.6858124    0.00000       Uiso       1.00
      C147          C  0.7840098  0.6147221  0.6413168    0.00000       Uiso       1.00
      C148          C  0.7663522  0.6089832  0.6332943    0.00000       Uiso       1.00
       H97          H  0.7895744  0.5999810  0.6445168    0.00000       Uiso       1.00
        N1          N  0.8226039  0.6688768  0.6571627    0.00000       Uiso       1.00
      C149          C  0.7591923  0.6280344  0.6291736    0.00000       Uiso       1.00
      C150          C  0.7944586  0.6394528  0.6451982    0.00000       Uiso       1.00
      C151          C  0.8130593  0.6459668  0.6536301    0.00000       Uiso       1.00
       H98          H  0.8186409  0.6312269  0.6568381    0.00000       Uiso       1.00
      C152          C  0.7129499  0.5916549  0.6090305    0.00000       Uiso       1.00
      C153          C  0.7305176  0.5971389  0.6170213    0.00000       Uiso       1.00
        N2          N  0.6773981  0.5811233  0.5928366    0.00000       Uiso       1.00
      C154          C  0.7408098  0.6219656  0.6208256    0.00000       Uiso       1.00
      C155          C  0.7055435  0.6105472  0.6048010    0.00000       Uiso       1.00
      C156          C  0.6869428  0.6040332  0.5963690    0.00000       Uiso       1.00
       H99          H  0.6813611  0.6187732  0.5931612    0.00000       Uiso       1.00
        O1          O  0.7372766  0.5774521  0.6209804    0.00000       Uiso       1.00
      C157          C  0.7549658  0.5831597  0.6290190    0.00000       Uiso       1.00
        O2          O  0.7609098  0.5662386  0.6324846    0.00000       Uiso       1.00
      C158          C  0.7159923  0.6352780  0.6086824    0.00000       Uiso       1.00
      C159          C  0.7336498  0.6410169  0.6167049    0.00000       Uiso       1.00
      H100          H  0.7104277  0.6500191  0.6054825    0.00000       Uiso       1.00
      C160          C  0.7870521  0.6583452  0.6409686    0.00000       Uiso       1.00
      C161          C  0.7694845  0.6528612  0.6329778    0.00000       Uiso       1.00
        O3          O  0.7627254  0.6725479  0.6290188    0.00000       Uiso       1.00
      C162          C  0.7450362  0.6668404  0.6209802    0.00000       Uiso       1.00
        O4          O  0.7390924  0.6837614  0.6175144    0.00000       Uiso       1.00
      C163          C  0.7840065  0.6692849  0.0746749    0.00000       Uiso       1.00
      C164          C  0.7663492  0.6573664  0.1003548    0.00000       Uiso       1.00
      H101          H  0.7895713  0.6895906  0.0659102    0.00000       Uiso       1.00
        N3          N  0.8225998  0.6537239  0.0202352    0.00000       Uiso       1.00
      C165          C  0.7591891  0.6311551  0.1116356    0.00000       Uiso       1.00
      C166          C  0.7944550  0.6550028  0.0603448    0.00000       Uiso       1.00
      C167          C  0.8130555  0.6670893  0.0333122    0.00000       Uiso       1.00
      H102          H  0.8186373  0.6874109  0.0245226    0.00000       Uiso       1.00
      C168          C  0.7129475  0.6212927  0.1780207    0.00000       Uiso       1.00
      C169          C  0.7305149  0.6333762  0.1524624    0.00000       Uiso       1.00
        N4          N  0.6773961  0.5962726  0.2297665    0.00000       Uiso       1.00
      C170          C  0.7408067  0.6188415  0.1383661    0.00000       Uiso       1.00
      C171          C  0.7055408  0.5949937  0.1896570    0.00000       Uiso       1.00
      C172          C  0.6869403  0.5829071  0.2166895    0.00000       Uiso       1.00
      H103          H  0.6813586  0.5625856  0.2254791    0.00000       Uiso       1.00
        O5          O  0.7372742  0.6598221  0.1417441    0.00000       Uiso       1.00
      C173          C  0.7549633  0.6718038  0.1160163    0.00000       Uiso       1.00
        O6          O  0.7609074  0.6946687  0.1066067    0.00000       Uiso       1.00
      C174          C  0.7159892  0.5807116  0.1753268    0.00000       Uiso       1.00
      C175          C  0.7336466  0.5926301  0.1496469    0.00000       Uiso       1.00
      H104          H  0.7104245  0.5604059  0.1840915    0.00000       Uiso       1.00
      C176          C  0.7870483  0.6287039  0.0719810    0.00000       Uiso       1.00
      C177          C  0.7694809  0.6166204  0.0975393    0.00000       Uiso       1.00
        O7          O  0.7627216  0.5901744  0.1082576    0.00000       Uiso       1.00
      C178          C  0.7450325  0.5781928  0.1339854    0.00000       Uiso       1.00
        O8          O  0.7390885  0.5553278  0.1433951    0.00000       Uiso       1.00
      C179          C  0.2159922  0.6413173  0.6147223    0.00000       Uiso       1.00
      C180          C  0.2336495  0.6332946  0.6089835    0.00000       Uiso       1.00
      H105          H  0.2104274  0.6445171  0.5999812    0.00000       Uiso       1.00
        N5          N  0.1773990  0.6571638  0.6688765    0.00000       Uiso       1.00
      C181          C  0.2408097  0.6291741  0.6280346    0.00000       Uiso       1.00
      C182          C  0.2055437  0.6451989  0.6394529    0.00000       Uiso       1.00
      C183          C  0.1869433  0.6536310  0.6459668    0.00000       Uiso       1.00
      H106          H  0.1813615  0.6568388  0.6312270    0.00000       Uiso       1.00
      C184          C  0.2870512  0.6090305  0.5916554    0.00000       Uiso       1.00
      C185          C  0.2694839  0.6170214  0.5971393    0.00000       Uiso       1.00
        N6          N  0.3226027  0.5928363  0.5811240    0.00000       Uiso       1.00
      C186          C  0.2591920  0.6208259  0.6219659    0.00000       Uiso       1.00
      C187          C  0.2944580  0.6048011  0.6105477    0.00000       Uiso       1.00
      C188          C  0.3130584  0.5963690  0.6040337    0.00000       Uiso       1.00
      H107          H  0.3186402  0.5931612  0.6187735    0.00000       Uiso       1.00
        O9          O  0.2627245  0.6209804  0.5774527    0.00000       Uiso       1.00
      C189          C  0.2450355  0.6290191  0.5831602    0.00000       Uiso       1.00
       O10          O  0.2390914  0.6324847  0.5662393    0.00000       Uiso       1.00
      C190          C  0.2840095  0.6086827  0.6352782    0.00000       Uiso       1.00
      C191          C  0.2663521  0.6167053  0.6410171    0.00000       Uiso       1.00
      H108          H  0.2895742  0.6054829  0.6500193    0.00000       Uiso       1.00
      C192          C  0.2129505  0.6409695  0.6583450    0.00000       Uiso       1.00
      C193          C  0.2305178  0.6329786  0.6528612    0.00000       Uiso       1.00
       O11          O  0.2372771  0.6290196  0.6725478    0.00000       Uiso       1.00
      C194          C  0.2549662  0.6209809  0.6668403    0.00000       Uiso       1.00
       O12          O  0.2609102  0.6175152  0.6837612    0.00000       Uiso       1.00
      C195          C  0.2159887  0.0746721  0.6692891    0.00000       Uiso       1.00
      C196          C  0.2336462  0.1003520  0.6573705    0.00000       Uiso       1.00
      H109          H  0.2104241  0.0659075  0.6895948    0.00000       Uiso       1.00
        N7          N  0.1773945  0.0202319  0.6537287    0.00000       Uiso       1.00
      C197          C  0.2408061  0.1116327  0.6311593    0.00000       Uiso       1.00
      C198          C  0.2055398  0.0603417  0.6550073    0.00000       Uiso       1.00
      C199          C  0.1869392  0.0333091  0.6670939    0.00000       Uiso       1.00
      H110          H  0.1813575  0.0245196  0.6874155    0.00000       Uiso       1.00
      C200          C  0.2870484  0.1780182  0.6212963    0.00000       Uiso       1.00
      C201          C  0.2694809  0.1524598  0.6333800    0.00000       Uiso       1.00
        N8          N  0.3226003  0.2297641  0.5962760    0.00000       Uiso       1.00
      C202          C  0.2591887  0.1383633  0.6188455    0.00000       Uiso       1.00
      C203          C  0.2944550  0.1896542  0.5949975    0.00000       Uiso       1.00
      C204          C  0.3130557  0.2166869  0.5829108    0.00000       Uiso       1.00
      H111          H  0.3186373  0.2254764  0.5625892    0.00000       Uiso       1.00
       O13          O  0.2627217  0.1417416  0.6598259    0.00000       Uiso       1.00
      C205          C  0.2450325  0.1160138  0.6718076    0.00000       Uiso       1.00
       O14          O  0.2390886  0.1066043  0.6946725    0.00000       Uiso       1.00
      C206          C  0.2840061  0.1753239  0.5807156    0.00000       Uiso       1.00
      C207          C  0.2663486  0.1496439  0.5926343    0.00000       Uiso       1.00
      H112          H  0.2895707  0.1840885  0.5604099    0.00000       Uiso       1.00
      C208          C  0.2129464  0.0719778  0.6287084    0.00000       Uiso       1.00
      C209          C  0.2305139  0.0975362  0.6166247    0.00000       Uiso       1.00
       O15          O  0.2372730  0.1082544  0.5901789    0.00000       Uiso       1.00
      C210          C  0.2549622  0.1339822  0.5781972    0.00000       Uiso       1.00
       O16          O  0.2609060  0.1433918  0.5553323    0.00000       Uiso       1.00
       Cl1         Cl  0.7969184  0.6822849  0.6446099    0.00000       Uiso       1.00
       Cl2         Cl  0.7030836  0.5677152  0.6053894    0.00000       Uiso       1.00
       Cl3         Cl  0.7969143  0.6146303  0.0584736    0.00000       Uiso       1.00
       Cl4         Cl  0.7030815  0.6353663  0.1915281    0.00000       Uiso       1.00
       Cl5         Cl  0.2030845  0.6446109  0.6822847    0.00000       Uiso       1.00
       Cl6         Cl  0.2969172  0.6053892  0.5677159    0.00000       Uiso       1.00
       Cl7         Cl  0.2030800  0.0584703  0.6146350    0.00000       Uiso       1.00
       Cl8         Cl  0.2969148  0.1915257  0.6353697    0.00000       Uiso       1.00
