data_57
_audit_creation_date              0000-00-00
_audit_creation_method            'LanYouShi'
_symmetry_space_group_name_H-M    'P1'
_cell_length_a                    70.4027023
_cell_length_b                    56.5792007
_cell_length_c                    56.5609016
_cell_angle_alpha                 94.7050018
_cell_angle_beta                  115.7474976
_cell_angle_gamma                 64.2117996
loop_
_atom_site_label
_atom_site_type_symbol
_atom_site_fract_x
_atom_site_fract_y
_atom_site_fract_z
_atom_site_U_iso_or_equiv
_atom_site_adp_type
_atom_site_occupancy
        C1          C  0.3396544  0.5735225  0.2519783    0.00000       Uiso       1.00
        C2          C  0.3487144  0.5479880  0.2642455    0.00000       Uiso       1.00
        C3          C  0.3664464  0.5397707  0.2905461    0.00000       Uiso       1.00
        C4          C  0.3486280  0.5907306  0.2660878    0.00000       Uiso       1.00
        C5          C  0.3662699  0.5826845  0.2924103    0.00000       Uiso       1.00
        C6          C  0.3754491  0.5570580  0.3051223    0.00000       Uiso       1.00
        H1          H  0.6287827  0.3000872  0.5212728    0.00000       Uiso       1.00
        H2          H  0.6284932  0.5685160  0.5330431    0.00000       Uiso       1.00
        H3          H  0.3414833  0.6116048  0.2563654    0.00000       Uiso       1.00
        H4          H  0.3416407  0.5336725  0.2530063    0.00000       Uiso       1.00
        C7          C  0.6621273  0.2528049  0.5750945    0.00000       Uiso       1.00
        C8          C  0.6532038  0.2650389  0.5495844    0.00000       Uiso       1.00
        C9          C  0.6353765  0.2912588  0.5412047    0.00000       Uiso       1.00
       C10          C  0.6528329  0.2668467  0.5921000    0.00000       Uiso       1.00
       C11          C  0.6349152  0.2930540  0.5837957    0.00000       Uiso       1.00
       C12          C  0.6259583  0.3057501  0.5582116    0.00000       Uiso       1.00
        H5          H  0.3728056  0.5200357  0.2996578    0.00000       Uiso       1.00
        H6          H  0.3707316  0.5312005  0.5669091    0.00000       Uiso       1.00
        H7          H  0.6598630  0.2571493  0.6129509    0.00000       Uiso       1.00
        H8          H  0.6605391  0.2538532  0.5354326    0.00000       Uiso       1.00
       C13          C  0.6614539  0.5860586  0.5894586    0.00000       Uiso       1.00
       C14          C  0.6521943  0.5828794  0.6057218    0.00000       Uiso       1.00
       C15          C  0.6344365  0.5743796  0.5960048    0.00000       Uiso       1.00
       C16          C  0.6525652  0.5810716  0.5632061    0.00000       Uiso       1.00
       C17          C  0.6347177  0.5726750  0.5533223    0.00000       Uiso       1.00
       C18          C  0.6254260  0.5690659  0.5696262    0.00000       Uiso       1.00
        H9          H  0.3703268  0.6078812  0.5697115    0.00000       Uiso       1.00
       H10          H  0.3729100  0.5964630  0.3027172    0.00000       Uiso       1.00
       H11          H  0.6598727  0.5836291  0.5496466    0.00000       Uiso       1.00
       H12          H  0.6591966  0.5869253  0.6271650    0.00000       Uiso       1.00
       C19          C  0.3367633  0.5876173  0.5834620    0.00000       Uiso       1.00
       C20          C  0.3458864  0.6040971  0.5804418    0.00000       Uiso       1.00
       C21          C  0.3639194  0.5945039  0.5723301    0.00000       Uiso       1.00
       C22          C  0.3459727  0.5613545  0.5785995    0.00000       Uiso       1.00
       C23          C  0.3639162  0.5516795  0.5703738    0.00000       Uiso       1.00
       C24          C  0.3731655  0.5681288  0.5670342    0.00000       Uiso       1.00
       H13          H  0.6275752  0.5722507  0.6090939    0.00000       Uiso       1.00
       H14          H  0.6283729  0.3035712  0.5975826    0.00000       Uiso       1.00
       C25          C  0.5000005  0.5000013  0.4999992    0.00000       Uiso       1.00
       H15          H  0.3387798  0.5476202  0.5810306    0.00000       Uiso       1.00
       H16          H  0.3386224  0.6255525  0.5843896    0.00000       Uiso       1.00
       C26          C  0.3941067  0.5485492  0.3333897    0.00000       Uiso       1.00
       C27          C  0.4127170  0.5227246  0.3416755    0.00000       Uiso       1.00
       C28          C  0.4300927  0.5147926  0.3681313    0.00000       Uiso       1.00
       C29          C  0.3934529  0.5661840  0.3524289    0.00000       Uiso       1.00
       C30          C  0.4108072  0.5582538  0.3788821    0.00000       Uiso       1.00
       C31          C  0.4294358  0.5324196  0.3871975    0.00000       Uiso       1.00
       H17          H  0.5915265  0.3911200  0.5143441    0.00000       Uiso       1.00
       H18          H  0.5566441  0.5674959  0.5039343    0.00000       Uiso       1.00
       H19          H  0.3791983  0.5860393  0.3469783    0.00000       Uiso       1.00
       H20          H  0.4140804  0.5087293  0.3275467    0.00000       Uiso       1.00
       C32          C  0.6071000  0.3339123  0.5493820    0.00000       Uiso       1.00
       C33          C  0.6076663  0.3516375  0.5338928    0.00000       Uiso       1.00
       C34          C  0.5901242  0.3779959  0.5257088    0.00000       Uiso       1.00
       C35          C  0.5883833  0.3434122  0.5563843    0.00000       Uiso       1.00
       C36          C  0.5708197  0.3697724  0.5481796    0.00000       Uiso       1.00
       C37          C  0.5713889  0.3875253  0.5327037    0.00000       Uiso       1.00
       H21          H  0.4442974  0.4948999  0.3735782    0.00000       Uiso       1.00
       H22          H  0.4083774  0.5185421  0.5142919    0.00000       Uiso       1.00
       H23          H  0.5870871  0.3302861  0.5678700    0.00000       Uiso       1.00
       H24          H  0.6219939  0.3452578  0.5285248    0.00000       Uiso       1.00
       C38          C  0.6066425  0.5596487  0.5593135    0.00000       Uiso       1.00
       C39          C  0.6070008  0.5414587  0.5752677    0.00000       Uiso       1.00
       C40          C  0.5895277  0.5325383  0.5656450    0.00000       Uiso       1.00
       C41          C  0.5882056  0.5686563  0.5334235    0.00000       Uiso       1.00
       C42          C  0.5707104  0.5597570  0.5238004    0.00000       Uiso       1.00
       C43          C  0.5710719  0.5415360  0.5397446    0.00000       Uiso       1.00
       H25          H  0.4425113  0.5614552  0.5688710    0.00000       Uiso       1.00
       H26          H  0.4093398  0.5722399  0.3930017    0.00000       Uiso       1.00
       H27          H  0.5870699  0.5829982  0.5207063    0.00000       Uiso       1.00
       H28          H  0.6211157  0.5336713  0.5950962    0.00000       Uiso       1.00
       C44          C  0.3921499  0.5578918  0.5579101    0.00000       Uiso       1.00
       C45          C  0.4106909  0.5652096  0.5685227    0.00000       Uiso       1.00
       C46          C  0.4283749  0.5556812  0.5598986    0.00000       Uiso       1.00
       C47          C  0.3918826  0.5407201  0.5383987    0.00000       Uiso       1.00
       C48          C  0.4095448  0.5312123  0.5297545    0.00000       Uiso       1.00
       C49          C  0.4281050  0.5385200  0.5403571    0.00000       Uiso       1.00
       H29          H  0.5907660  0.5180959  0.5783488    0.00000       Uiso       1.00
       H30          H  0.5565417  0.3761567  0.5536379    0.00000       Uiso       1.00
       H31          H  0.3776977  0.5350312  0.5293834    0.00000       Uiso       1.00
       H32          H  0.4117582  0.5779904  0.5838911    0.00000       Uiso       1.00
       C50          C  0.4479413  0.5238858  0.4155731    0.00000       Uiso       1.00
       C51          C  0.4572884  0.4981869  0.4281133    0.00000       Uiso       1.00
       C52          C  0.4742115  0.4903729  0.4547555    0.00000       Uiso       1.00
       C53          C  0.4560212  0.5415382  0.4306516    0.00000       Uiso       1.00
       C54          C  0.4729257  0.5337240  0.4572887    0.00000       Uiso       1.00
       C55          C  0.4830669  0.5076601  0.4697542    0.00000       Uiso       1.00
       H33          H  0.5225745  0.4651810  0.4723499    0.00000       Uiso       1.00
       H34          H  0.5205480  0.5126643  0.4733168    0.00000       Uiso       1.00
       H35          H  0.4492368  0.5615301  0.4218443    0.00000       Uiso       1.00
       H36          H  0.4509230  0.4843054  0.4175361    0.00000       Uiso       1.00
       C56          C  0.5526797  0.4158076  0.5240669    0.00000       Uiso       1.00
       C57          C  0.5446353  0.4290320  0.4991218    0.00000       Uiso       1.00
       C58          C  0.5275381  0.4555929  0.4913052    0.00000       Uiso       1.00
       C59          C  0.5430964  0.4301223  0.5409572    0.00000       Uiso       1.00
       C60          C  0.5259808  0.4566870  0.5331211    0.00000       Uiso       1.00
       C61          C  0.5171666  0.4698184  0.5077246    0.00000       Uiso       1.00
       H37          H  0.4800196  0.4708206  0.4638057    0.00000       Uiso       1.00
       H38          H  0.4776811  0.4738047  0.5090880    0.00000       Uiso       1.00
       H39          H  0.5494218  0.4210156  0.5606854    0.00000       Uiso       1.00
       H40          H  0.5516009  0.4188211  0.4855494    0.00000       Uiso       1.00
       C62          C  0.5524409  0.5318483  0.5293939    0.00000       Uiso       1.00
       C63          C  0.5440680  0.5267983  0.5459898    0.00000       Uiso       1.00
       C64          C  0.5270455  0.5172288  0.5364535    0.00000       Uiso       1.00
       C65          C  0.5432651  0.5268755  0.5029639    0.00000       Uiso       1.00
       C66          C  0.5262231  0.5173218  0.4934272    0.00000       Uiso       1.00
       C67          C  0.5170770  0.5131342  0.5096896    0.00000       Uiso       1.00
       H41          H  0.4794494  0.5493612  0.5155861    0.00000       Uiso       1.00
       H42          H  0.4779212  0.5483043  0.4683197    0.00000       Uiso       1.00
       H43          H  0.5498540  0.5295565  0.4898054    0.00000       Uiso       1.00
       H44          H  0.5507123  0.5302306  0.5664853    0.00000       Uiso       1.00
       C68          C  0.4469391  0.5284581  0.5309697    0.00000       Uiso       1.00
       C69          C  0.4563528  0.5448148  0.5279732    0.00000       Uiso       1.00
       C70          C  0.4735870  0.5356209  0.5186997    0.00000       Uiso       1.00
       C71          C  0.4552744  0.5026313  0.5242332    0.00000       Uiso       1.00
       C72          C  0.4724893  0.4934570  0.5149448    0.00000       Uiso       1.00
       C73          C  0.4826904  0.5093917  0.5128284    0.00000       Uiso       1.00
       H45          H  0.5218218  0.5127182  0.5502303    0.00000       Uiso       1.00
       H46          H  0.5199868  0.4671618  0.5472959    0.00000       Uiso       1.00
       H47          H  0.4484512  0.4894142  0.5261163    0.00000       Uiso       1.00
       H48          H  0.4498084  0.5651240  0.5319927    0.00000       Uiso       1.00
       C74          C  0.1589098  0.6620008  0.6600568    0.00000       Uiso       1.00
       C75          C  0.1500311  0.6882260  0.6651284    0.00000       Uiso       1.00
       C76          C  0.1324484  0.6979532  0.6739462    0.00000       Uiso       1.00
       C77          C  0.1499034  0.6456075  0.6635760    0.00000       Uiso       1.00
       C78          C  0.1324107  0.6551683  0.6724950    0.00000       Uiso       1.00
       C79          C  0.1234163  0.6815174  0.6778991    0.00000       Uiso       1.00
       H49          H  0.8715791  0.9472162  0.6544704    0.00000       Uiso       1.00
       H50          H  0.8705243  0.6795743  0.6446612    0.00000       Uiso       1.00
       H51          H  0.1569007  0.6241844  0.6594672    0.00000       Uiso       1.00
       H52          H  0.1571336  0.7018902  0.6622977    0.00000       Uiso       1.00
       C80          C  0.8387251  0.9977125  0.6780546    0.00000       Uiso       1.00
       C81          C  0.8474228  0.9837185  0.6605854    0.00000       Uiso       1.00
       C82          C  0.8651605  0.9574326  0.6684516    0.00000       Uiso       1.00
       C83          C  0.8481570  0.9853683  0.7036641    0.00000       Uiso       1.00
       C84          C  0.8659864  0.9591045  0.7117008    0.00000       Uiso       1.00
       C85          C  0.8747146  0.9446433  0.6941538    0.00000       Uiso       1.00
       H53          H  0.1262306  0.7182148  0.6781595    0.00000       Uiso       1.00
       H54          H  0.1305878  0.7287757  0.9486999    0.00000       Uiso       1.00
       H55          H  0.8413118  0.9965134  0.7181908    0.00000       Uiso       1.00
       H56          H  0.8399731  0.9935052  0.6396460    0.00000       Uiso       1.00
       C86          C  0.8377296  0.6654267  0.6659510    0.00000       Uiso       1.00
       C87          C  0.8472129  0.6702535  0.6921858    0.00000       Uiso       1.00
       C88          C  0.8650565  0.6785994  0.7014744    0.00000       Uiso       1.00
       C89          C  0.8464788  0.6686036  0.6491073    0.00000       Uiso       1.00
       C90          C  0.8644105  0.6768359  0.6583118    0.00000       Uiso       1.00
       C91          C  0.8739288  0.6820974  0.6846562    0.00000       Uiso       1.00
       H57          H  0.1306059  0.6522858  0.9456671    0.00000       Uiso       1.00
       H58          H  0.1257396  0.6419812  0.6748793    0.00000       Uiso       1.00
       H59          H  0.8389881  0.6646870  0.6276687    0.00000       Uiso       1.00
       H60          H  0.8403267  0.6676952  0.7062135    0.00000       Uiso       1.00
       C92          C  0.1646337  0.6748645  0.9959298    0.00000       Uiso       1.00
       C93          C  0.1553315  0.6578065  0.9820926    0.00000       Uiso       1.00
       C94          C  0.1371532  0.6661107  0.9560341    0.00000       Uiso       1.00
       C95          C  0.1554592  0.7004250  0.9836450    0.00000       Uiso       1.00
       C96          C  0.1373706  0.7088050  0.9575712    0.00000       Uiso       1.00
       C97          C  0.1279385  0.6917471  0.9432839    0.00000       Uiso       1.00
       H61          H  0.8720913  0.6820332  0.7219418    0.00000       Uiso       1.00
       H62          H  0.8726380  0.9499291  0.7315062    0.00000       Uiso       1.00
       C98          C  0.9999990  0.7500007  0.7499981    0.00000       Uiso       1.00
       H63          H  0.1627978  0.7146197  0.9946656    0.00000       Uiso       1.00
       H64          H  0.1625649  0.6369138  0.9918351    0.00000       Uiso       1.00
       C99          C  0.1049202  0.6916628  0.6877643    0.00000       Uiso       1.00
      C100          C  0.0863912  0.7175179  0.6789605    0.00000       Uiso       1.00
      C101          C  0.0691671  0.7269847  0.6882800    0.00000       Uiso       1.00
      C102          C  0.1056494  0.6755826  0.7061836    0.00000       Uiso       1.00
      C103          C  0.0884468  0.6850483  0.7155225    0.00000       Uiso       1.00
      C104          C  0.0698996  0.7109146  0.7067303    0.00000       Uiso       1.00
       H65          H  0.9085445  0.8568794  0.6786088    0.00000       Uiso       1.00
       H66          H  0.9426286  0.6807770  0.6897966    0.00000       Uiso       1.00
       H67          H  0.1198491  0.6557766  0.7138236    0.00000       Uiso       1.00
       H68          H  0.0849706  0.7303291  0.6644569    0.00000       Uiso       1.00
      C105          C  0.8934761  0.9164138  0.7024753    0.00000       Uiso       1.00
      C106          C  0.8926752  0.8974015  0.6848300    0.00000       Uiso       1.00
      C107          C  0.9101265  0.8709828  0.6925868    0.00000       Uiso       1.00
      C108          C  0.9123335  0.9081371  0.7281311    0.00000       Uiso       1.00
      C109          C  0.9298064  0.8817157  0.7358892    0.00000       Uiso       1.00
      C110          C  0.9290026  0.8626766  0.7182521    0.00000       Uiso       1.00
       H69          H  0.0550177  0.7468296  0.6806910    0.00000       Uiso       1.00
       H70          H  0.0922880  0.7358465  0.8577396    0.00000       Uiso       1.00
       H71          H  0.9138098  0.9222487  0.7421215    0.00000       Uiso       1.00
       H72          H  0.8782349  0.9028435  0.6651095    0.00000       Uiso       1.00
      C111          C  0.8928049  0.6913493  0.6944813    0.00000       Uiso       1.00
      C112          C  0.8926814  0.7108317  0.7116761    0.00000       Uiso       1.00
      C113          C  0.9102411  0.7195961  0.7207991    0.00000       Uiso       1.00
      C114          C  0.9110966  0.6808896  0.6867424    0.00000       Uiso       1.00
      C115          C  0.9286786  0.6896337  0.6958863    0.00000       Uiso       1.00
      C116          C  0.9285520  0.7091461  0.7130702    0.00000       Uiso       1.00
       H73          H  0.0581589  0.6961212  0.8738878    0.00000       Uiso       1.00
       H74          H  0.0899721  0.6722491  0.7301252    0.00000       Uiso       1.00
       H75          H  0.9120522  0.6655477  0.6739295    0.00000       Uiso       1.00
       H76          H  0.8786824  0.7197322  0.7176814    0.00000       Uiso       1.00
      C117          C  0.1087969  0.7005799  0.9152731    0.00000       Uiso       1.00
      C118          C  0.0901790  0.6934616  0.9061729    0.00000       Uiso       1.00
      C119          C  0.0723474  0.7016720  0.8799543    0.00000       Uiso       1.00
      C120          C  0.1089887  0.7161911  0.8972937    0.00000       Uiso       1.00
      C121          C  0.0911788  0.7243798  0.8710757    0.00000       Uiso       1.00
      C122          C  0.0725415  0.7172703  0.8619465    0.00000       Uiso       1.00
       H77          H  0.9091828  0.7350339  0.7335007    0.00000       Uiso       1.00
       H78          H  0.9441976  0.8762746  0.7556488    0.00000       Uiso       1.00
       H79          H  0.1232251  0.7216547  0.9033601    0.00000       Uiso       1.00
       H80          H  0.0891691  0.6818802  0.9195086    0.00000       Uiso       1.00
      C123          C  0.0515578  0.7210992  0.7168640    0.00000       Uiso       1.00
      C124          C  0.0423932  0.7475009  0.7219271    0.00000       Uiso       1.00
      C125          C  0.0256259  0.7568807  0.7318935    0.00000       Uiso       1.00
      C126          C  0.0434574  0.7043715  0.7222487    0.00000       Uiso       1.00
      C127          C  0.0267088  0.7137517  0.7322292    0.00000       Uiso       1.00
      C128          C  0.0167459  0.7404845  0.7364247    0.00000       Uiso       1.00
       H81          H  0.9772139  0.7818047  0.7016153    0.00000       Uiso       1.00
       H82          H  0.9790066  0.7344401  0.7008013    0.00000       Uiso       1.00
       H83          H  0.0501047  0.6838925  0.7187613    0.00000       Uiso       1.00
       H84          H  0.0487860  0.7607595  0.7189948    0.00000       Uiso       1.00
      C129          C  0.9476150  0.8343374  0.7266035    0.00000       Uiso       1.00
      C130          C  0.9554269  0.8193672  0.7087125    0.00000       Uiso       1.00
      C131          C  0.9724325  0.7927598  0.7163625    0.00000       Uiso       1.00
      C132          C  0.9573354  0.8217211  0.7523735    0.00000       Uiso       1.00
      C133          C  0.9743592  0.7951091  0.7600226    0.00000       Uiso       1.00
      C134          C  0.9829429  0.7802226  0.7424813    0.00000       Uiso       1.00
       H85          H  0.0199615  0.7769741  0.7366005    0.00000       Uiso       1.00
       H86          H  0.0226949  0.7777405  0.7844079    0.00000       Uiso       1.00
       H87          H  0.9511867  0.8322091  0.7664503    0.00000       Uiso       1.00
       H88          H  0.9483494  0.8282384  0.6886600    0.00000       Uiso       1.00
      C135          C  0.9472756  0.7186603  0.7227213    0.00000       Uiso       1.00
      C136          C  0.9558790  0.7253547  0.7485266    0.00000       Uiso       1.00
      C137          C  0.9729892  0.7347597  0.7573233    0.00000       Uiso       1.00
      C138          C  0.9563121  0.7218188  0.7059945    0.00000       Uiso       1.00
      C139          C  0.9734420  0.7312086  0.7148099    0.00000       Uiso       1.00
      C140          C  0.9828165  0.7370405  0.7410090    0.00000       Uiso       1.00
       H89          H  0.0205631  0.7025983  0.7829414    0.00000       Uiso       1.00
       H90          H  0.0216957  0.6998792  0.7369800    0.00000       Uiso       1.00
       H91          H  0.9495478  0.7178366  0.6856940    0.00000       Uiso       1.00
       H92          H  0.9493482  0.7233463  0.7620201    0.00000       Uiso       1.00
      C141          C  0.0535480  0.7259119  0.8338118    0.00000       Uiso       1.00
      C142          C  0.0439540  0.7089685  0.8197076    0.00000       Uiso       1.00
      C143          C  0.0265678  0.7168073  0.7932727    0.00000       Uiso       1.00
      C144          C  0.0452350  0.7509149  0.8205077    0.00000       Uiso       1.00
      C145          C  0.0278680  0.7587336  0.7940763    0.00000       Uiso       1.00
      C146          C  0.0174910  0.7422560  0.7800783    0.00000       Uiso       1.00
       H93          H  0.9783940  0.7405747  0.7769834    0.00000       Uiso       1.00
       H94          H  0.9804621  0.7859882  0.7796547    0.00000       Uiso       1.00
       H95          H  0.0521937  0.7645347  0.8305509    0.00000       Uiso       1.00
       H96          H  0.0504695  0.6892031  0.8288710    0.00000       Uiso       1.00
      C147          C  0.7812181  0.6392830  0.6650085    0.00000       Uiso       1.00
      C148          C  0.7652241  0.6328091  0.6461920    0.00000       Uiso       1.00
      C149          C  0.7233397  0.6108135  0.6395710    0.00000       Uiso       1.00
      C150          C  0.7362849  0.6185743  0.6334733    0.00000       Uiso       1.00
        O1          O  0.6932793  0.5963907  0.6232846    0.00000       Uiso       1.00
      C151          C  0.7937353  0.6468940  0.6582101    0.00000       Uiso       1.00
        O2          O  0.8104831  0.6540416  0.6747954    0.00000       Uiso       1.00
      C152          C  0.7076412  0.6045455  0.6203719    0.00000       Uiso       1.00
      C153          C  0.7522789  0.6250483  0.6522897    0.00000       Uiso       1.00
       H97          H  0.7547669  0.6239980  0.6726207    0.00000       Uiso       1.00
        O3          O  0.8050482  0.6563358  0.6303830    0.00000       Uiso       1.00
      C154          C  0.7045923  0.6058325  0.5954576    0.00000       Uiso       1.00
        O4          O  0.6878445  0.5986848  0.5788722    0.00000       Uiso       1.00
      C155          C  0.7906865  0.6481810  0.6332958    0.00000       Uiso       1.00
        B1          B  0.8171709  0.6598150  0.6567228    0.00000       Uiso       1.00
      C156          C  0.7460487  0.6276782  0.6013779    0.00000       Uiso       1.00
       H98          H  0.7435607  0.6287284  0.5810469    0.00000       Uiso       1.00
      C157          C  0.7171094  0.6134434  0.5886592    0.00000       Uiso       1.00
      C158          C  0.7331035  0.6199173  0.6074758    0.00000       Uiso       1.00
      C159          C  0.7749879  0.6419130  0.6140966    0.00000       Uiso       1.00
      C160          C  0.7620427  0.6341521  0.6201944    0.00000       Uiso       1.00
        B2          B  0.6811567  0.5929115  0.5969449    0.00000       Uiso       1.00
      C161          C  0.7825145  0.0799892  0.6216728    0.00000       Uiso       1.00
      C162          C  0.7662889  0.1025079  0.6241041    0.00000       Uiso       1.00
      C163          C  0.7245169  0.1661630  0.5881819    0.00000       Uiso       1.00
      C164          C  0.7372901  0.1455948  0.6073587    0.00000       Uiso       1.00
        O5          O  0.6943429  0.2105815  0.5738363    0.00000       Uiso       1.00
      C165          C  0.7948501  0.0600019  0.6411101    0.00000       Uiso       1.00
        O6          O  0.8117880  0.0360795  0.6416554    0.00000       Uiso       1.00
      C166          C  0.7085787  0.1881855  0.5912923    0.00000       Uiso       1.00
      C167          C  0.7535157  0.1230761  0.6049274    0.00000       Uiso       1.00
       H99          H  0.7563330  0.1214844  0.5872944    0.00000       Uiso       1.00
        O7          O  0.8056335  0.0395565  0.6801742    0.00000       Uiso       1.00
      C168          C  0.7051263  0.1901361  0.6129004    0.00000       Uiso       1.00
        O8          O  0.6881885  0.2140585  0.6123551    0.00000       Uiso       1.00
      C169          C  0.7913977  0.0619525  0.6627182    0.00000       Uiso       1.00
        B3          B  0.8181354  0.0238148  0.6663570    0.00000       Uiso       1.00
      C170          C  0.7464607  0.1270619  0.6490831    0.00000       Uiso       1.00
      H100          H  0.7436434  0.1286536  0.6667161    0.00000       Uiso       1.00
      C171          C  0.7174619  0.1701489  0.6323376    0.00000       Uiso       1.00
      C172          C  0.7336876  0.1476301  0.6299063    0.00000       Uiso       1.00
      C173          C  0.7754595  0.0839750  0.6658285    0.00000       Uiso       1.00
      C174          C  0.7626863  0.1045432  0.6466517    0.00000       Uiso       1.00
        B4          B  0.6818411  0.2263232  0.5876534    0.00000       Uiso       1.00
      C175          C  0.2156911  0.6618593  0.6348278    0.00000       Uiso       1.00
      C176          C  0.2319433  0.6431708  0.6285906    0.00000       Uiso       1.00
      C177          C  0.2741155  0.6371152  0.6072814    0.00000       Uiso       1.00
      C178          C  0.2611555  0.6307988  0.6148174    0.00000       Uiso       1.00
        O9          O  0.3044875  0.6211723  0.5933333    0.00000       Uiso       1.00
      C179          C  0.2031678  0.6548447  0.6422198    0.00000       Uiso       1.00
       O10          O  0.1861779  0.6712791  0.6491147    0.00000       Uiso       1.00
      C180          C  0.2900742  0.6180378  0.6012447    0.00000       Uiso       1.00
      C181          C  0.2449033  0.6494872  0.6210546    0.00000       Uiso       1.00
      H101          H  0.2422167  0.6698921  0.6199946    0.00000       Uiso       1.00
       O11          O  0.1920467  0.6267053  0.6514302    0.00000       Uiso       1.00
      C182          C  0.2933664  0.5930329  0.6025437    0.00000       Uiso       1.00
       O12          O  0.3103563  0.5765984  0.5956488    0.00000       Uiso       1.00
      C183          C  0.2064600  0.6298398  0.6435188    0.00000       Uiso       1.00
        B5          B  0.1796184  0.6530131  0.6547487    0.00000       Uiso       1.00
      C184          C  0.2516309  0.5983904  0.6237089    0.00000       Uiso       1.00
      H102          H  0.2543175  0.5779855  0.6247689    0.00000       Uiso       1.00
      C185          C  0.2808431  0.5860183  0.6099358    0.00000       Uiso       1.00
      C186          C  0.2645909  0.6047068  0.6161729    0.00000       Uiso       1.00
      C187          C  0.2224187  0.6107624  0.6374821    0.00000       Uiso       1.00
      C188          C  0.2353787  0.6170788  0.6299460    0.00000       Uiso       1.00
        B6          B  0.3169158  0.5948645  0.5900148    0.00000       Uiso       1.00
      C189          C  0.2205751  0.6188719  0.0784844    0.00000       Uiso       1.00
      C190          C  0.2365425  0.6215156  0.1011067    0.00000       Uiso       1.00
      C191          C  0.2780266  0.5859118  0.1649591    0.00000       Uiso       1.00
      C192          C  0.2652683  0.6050355  0.1443440    0.00000       Uiso       1.00
       O13          O  0.3078891  0.5718589  0.2095392    0.00000       Uiso       1.00
      C193          C  0.2082456  0.6382628  0.0584535    0.00000       Uiso       1.00
       O14          O  0.1915498  0.6386032  0.0344279    0.00000       Uiso       1.00
      C194          C  0.2937048  0.5892346  0.1870846    0.00000       Uiso       1.00
      C195          C  0.2493009  0.6023918  0.1217217    0.00000       Uiso       1.00
      H103          H  0.2466822  0.5846289  0.1200837    0.00000       Uiso       1.00
       O15          O  0.1972703  0.6774058  0.0380061    0.00000       Uiso       1.00
      C196          C  0.2969138  0.6110019  0.1890919    0.00000       Uiso       1.00
       O16          O  0.3136096  0.6106615  0.2131174    0.00000       Uiso       1.00
      C197          C  0.2114547  0.6600301  0.0604607    0.00000       Uiso       1.00
        B7          B  0.1850742  0.6633605  0.0221649    0.00000       Uiso       1.00
      C198          C  0.2558585  0.6468729  0.1258236    0.00000       Uiso       1.00
      H104          H  0.2584772  0.6646358  0.1274616    0.00000       Uiso       1.00
      C199          C  0.2845843  0.6303928  0.1690609    0.00000       Uiso       1.00
      C200          C  0.2686169  0.6277491  0.1464386    0.00000       Uiso       1.00
      C201          C  0.2271328  0.6633530  0.0825862    0.00000       Uiso       1.00
      C202          C  0.2398911  0.6442292  0.1032013    0.00000       Uiso       1.00
        B8          B  0.3200853  0.5859042  0.2253804    0.00000       Uiso       1.00
       O17          O  0.7258686  0.6091405  0.6653576    0.00000       Uiso       1.00
      H105          H  0.7149212  0.6029867  0.6670520    0.00000       Uiso       1.00
       O18          O  0.7132558  0.6144647  0.5622903    0.00000       Uiso       1.00
      H106          H  0.7006258  0.6090211  0.5502338    0.00000       Uiso       1.00
       O19          O  0.7850717  0.6382618  0.6913774    0.00000       Uiso       1.00
      H107          H  0.7977018  0.6437052  0.7034339    0.00000       Uiso       1.00
       O20          O  0.7724590  0.6435859  0.5883099    0.00000       Uiso       1.00
      H108          H  0.7834063  0.6497397  0.5866157    0.00000       Uiso       1.00
       O21          O  0.7274668  0.1651076  0.5651815    0.00000       Uiso       1.00
      H109          H  0.7166066  0.1821212  0.5523970    0.00000       Uiso       1.00
       O22          O  0.7131845  0.1731767  0.6545715    0.00000       Uiso       1.00
      H110          H  0.7004188  0.1912669  0.6537130    0.00000       Uiso       1.00
       O23          O  0.7867919  0.0769613  0.5994390    0.00000       Uiso       1.00
      H111          H  0.7995576  0.0588711  0.6002974    0.00000       Uiso       1.00
       O24          O  0.7725096  0.0850304  0.6888290    0.00000       Uiso       1.00
      H112          H  0.7833698  0.0680168  0.7016134    0.00000       Uiso       1.00
       O25          O  0.2713382  0.6630046  0.6056066    0.00000       Uiso       1.00
      H113          H  0.2823296  0.6648650  0.5996375    0.00000       Uiso       1.00
       O26          O  0.2849578  0.5595626  0.6109800    0.00000       Uiso       1.00
      H114          H  0.2977662  0.5476223  0.6057279    0.00000       Uiso       1.00
       O27          O  0.2115764  0.6883150  0.6337835    0.00000       Uiso       1.00
      H115          H  0.1987680  0.7002553  0.6390356    0.00000       Uiso       1.00
       O28          O  0.2251960  0.5848730  0.6391569    0.00000       Uiso       1.00
      H116          H  0.2142046  0.5830125  0.6451260    0.00000       Uiso       1.00
       O29          O  0.2753252  0.5627508  0.1638477    0.00000       Uiso       1.00
      H117          H  0.2861414  0.5500305  0.1809070    0.00000       Uiso       1.00
       O30          O  0.2886007  0.6527994  0.1721517    0.00000       Uiso       1.00
      H118          H  0.3011881  0.6520930  0.1903188    0.00000       Uiso       1.00
       O31          O  0.2165587  0.5964653  0.0753937    0.00000       Uiso       1.00
      H119          H  0.2039714  0.5971717  0.0572266    0.00000       Uiso       1.00
       O32          O  0.2298342  0.6865140  0.0836976    0.00000       Uiso       1.00
      H120          H  0.2190181  0.6992342  0.0666384    0.00000       Uiso       1.00
