data_58
_audit_creation_date              0000-00-00
_audit_creation_method            'LanYouShi'
_symmetry_space_group_name_H-M    'P1'
_cell_length_a                    71.7525024
_cell_length_b                    57.5339012
_cell_length_c                    57.5339012
_cell_angle_alpha                 94.7664032
_cell_angle_beta                  64.2639008
_cell_angle_gamma                 115.7368011
loop_
_atom_site_label
_atom_site_type_symbol
_atom_site_fract_x
_atom_site_fract_y
_atom_site_fract_z
_atom_site_U_iso_or_equiv
_atom_site_adp_type
_atom_site_occupancy
        C1          C  0.3413835  0.2570039  0.5724964    0.00000       Uiso       1.00
        C2          C  0.3502966  0.2690453  0.5473976    0.00000       Uiso       1.00
        C3          C  0.3678277  0.2948045  0.5392960    0.00000       Uiso       1.00
        C4          C  0.3502968  0.2707929  0.5893861    0.00000       Uiso       1.00
        C5          C  0.3677404  0.2965745  0.5814528    0.00000       Uiso       1.00
        C6          C  0.3767734  0.3090540  0.5562633    0.00000       Uiso       1.00
        H1          H  0.6256618  0.5196904  0.3035131    0.00000       Uiso       1.00
        H2          H  0.6259122  0.5308606  0.5672058    0.00000       Uiso       1.00
        H3          H  0.3432688  0.2612479  0.6099036    0.00000       Uiso       1.00
        H4          H  0.3432683  0.2580614  0.5333463    0.00000       Uiso       1.00
        C7          C  0.6586142  0.5724940  0.2570061    0.00000       Uiso       1.00
        C8          C  0.6497011  0.5473951  0.2690476    0.00000       Uiso       1.00
        C9          C  0.6322575  0.5393046  0.2948225    0.00000       Uiso       1.00
       C10          C  0.6497014  0.5893839  0.2707949    0.00000       Uiso       1.00
       C11          C  0.6321701  0.5813690  0.2965574    0.00000       Uiso       1.00
       C12          C  0.6232244  0.5561967  0.3090529    0.00000       Uiso       1.00
        H5          H  0.3740850  0.3037545  0.5198985    0.00000       Uiso       1.00
        H6          H  0.3743375  0.5676914  0.5306866    0.00000       Uiso       1.00
        H7          H  0.6567295  0.6099015  0.2612498    0.00000       Uiso       1.00
        H8          H  0.6567290  0.5333436  0.2580639    0.00000       Uiso       1.00
       C13          C  0.6586161  0.5861201  0.5843804    0.00000       Uiso       1.00
       C14          C  0.6497031  0.6023058  0.5812520    0.00000       Uiso       1.00
       C15          C  0.6322600  0.5929531  0.5729198    0.00000       Uiso       1.00
       C16          C  0.6497028  0.5603170  0.5795047    0.00000       Uiso       1.00
       C17          C  0.6321710  0.5508004  0.5712739    0.00000       Uiso       1.00
       C18          C  0.6232262  0.5670276  0.5677232    0.00000       Uiso       1.00
        H9          H  0.3740897  0.5703335  0.6060150    0.00000       Uiso       1.00
       H10          H  0.3743363  0.3066444  0.5949774    0.00000       Uiso       1.00
       H11          H  0.6567308  0.5468276  0.5820217    0.00000       Uiso       1.00
       H12          H  0.6567313  0.6233854  0.5852076    0.00000       Uiso       1.00
       C19          C  0.3413860  0.5843802  0.5861198    0.00000       Uiso       1.00
       C20          C  0.3502991  0.5812519  0.6023056    0.00000       Uiso       1.00
       C21          C  0.3678311  0.5730250  0.5928756    0.00000       Uiso       1.00
       C22          C  0.3502989  0.5795043  0.5603170    0.00000       Uiso       1.00
       C23          C  0.3677422  0.5711660  0.5508068    0.00000       Uiso       1.00
       C24          C  0.3767760  0.5677207  0.5669627    0.00000       Uiso       1.00
       H13          H  0.6256647  0.6059715  0.5708237    0.00000       Uiso       1.00
       H14          H  0.6259127  0.5950509  0.3068841    0.00000       Uiso       1.00
       C25          C  0.5000008  0.5000004  0.5000011    0.00000       Uiso       1.00
       H15          H  0.3432707  0.5820212  0.5468276    0.00000       Uiso       1.00
       H16          H  0.3432711  0.5852077  0.6233850    0.00000       Uiso       1.00
       C26          C  0.3952250  0.3367440  0.5478735    0.00000       Uiso       1.00
       C27          C  0.4134332  0.3447309  0.5224864    0.00000       Uiso       1.00
       C28          C  0.4306181  0.3706474  0.5146652    0.00000       Uiso       1.00
       C29          C  0.3947757  0.3555249  0.5651852    0.00000       Uiso       1.00
       C30          C  0.4119396  0.3814391  0.5573658    0.00000       Uiso       1.00
       C31          C  0.4301661  0.3894551  0.5319693    0.00000       Uiso       1.00
       H17          H  0.5893556  0.5131729  0.3929705    0.00000       Uiso       1.00
       H18          H  0.5554768  0.5030414  0.5662687    0.00000       Uiso       1.00
       H19          H  0.3808368  0.3502920  0.5847033    0.00000       Uiso       1.00
       H20          H  0.4146229  0.3307841  0.5087464    0.00000       Uiso       1.00
       C32          C  0.6047729  0.5476720  0.3367369    0.00000       Uiso       1.00
       C33          C  0.6052237  0.5323378  0.3541600    0.00000       Uiso       1.00
       C34          C  0.5880607  0.5244367  0.3800707    0.00000       Uiso       1.00
       C35          C  0.5865637  0.5548123  0.3460765    0.00000       Uiso       1.00
       C36          C  0.5693794  0.5468910  0.3719890    0.00000       Uiso       1.00
       C37          C  0.5698332  0.5315698  0.3894393    0.00000       Uiso       1.00
       H21          H  0.4445083  0.3758775  0.4951104    0.00000       Uiso       1.00
       H22          H  0.4106473  0.5152646  0.5182632    0.00000       Uiso       1.00
       H23          H  0.5853734  0.5661943  0.3331746    0.00000       Uiso       1.00
       H24          H  0.6191643  0.5268627  0.3478874    0.00000       Uiso       1.00
       C38          C  0.6047747  0.5571012  0.5584906    0.00000       Uiso       1.00
       C39          C  0.6052302  0.5728834  0.5406100    0.00000       Uiso       1.00
       C40          C  0.5880654  0.5636207  0.5318642    0.00000       Uiso       1.00
       C41          C  0.5865597  0.5317553  0.5673687    0.00000       Uiso       1.00
       C42          C  0.5693733  0.5224925  0.5586436    0.00000       Uiso       1.00
       C43          C  0.5698318  0.5382648  0.5407326    0.00000       Uiso       1.00
       H25          H  0.4445228  0.5686522  0.5603620    0.00000       Uiso       1.00
       H26          H  0.4106482  0.3953782  0.5710968    0.00000       Uiso       1.00
       H27          H  0.5853657  0.5191863  0.5814673    0.00000       Uiso       1.00
       H28          H  0.6191738  0.5922968  0.5329373    0.00000       Uiso       1.00
       C44          C  0.3952276  0.5584828  0.5569004    0.00000       Uiso       1.00
       C45          C  0.4134414  0.5687120  0.5640705    0.00000       Uiso       1.00
       C46          C  0.4306281  0.5599834  0.5547045    0.00000       Uiso       1.00
       C47          C  0.3947737  0.5392467  0.5400446    0.00000       Uiso       1.00
       C48          C  0.4119390  0.5304984  0.5306991    0.00000       Uiso       1.00
       C49          C  0.4301714  0.5407175  0.5378591    0.00000       Uiso       1.00
       H29          H  0.5893592  0.5761753  0.5176668    0.00000       Uiso       1.00
       H30          H  0.5554882  0.5524546  0.3782660    0.00000       Uiso       1.00
       H31          H  0.3808314  0.5305359  0.5344710    0.00000       Uiso       1.00
       H32          H  0.4146347  0.5838538  0.5766150    0.00000       Uiso       1.00
       C50          C  0.4484699  0.4172540  0.5235549    0.00000       Uiso       1.00
       C51          C  0.4576655  0.4295616  0.4982943    0.00000       Uiso       1.00
       C52          C  0.4744099  0.4556679  0.4905892    0.00000       Uiso       1.00
       C53          C  0.4565190  0.4320108  0.5408810    0.00000       Uiso       1.00
       C54          C  0.4732452  0.4581122  0.5331758    0.00000       Uiso       1.00
       C55          C  0.4832153  0.4703365  0.5075561    0.00000       Uiso       1.00
       H33          H  0.5217625  0.4724631  0.4657988    0.00000       Uiso       1.00
       H34          H  0.5198679  0.4733632  0.5124462    0.00000       Uiso       1.00
       H35          H  0.4498493  0.4233664  0.5605310    0.00000       Uiso       1.00
       H36          H  0.4513353  0.4192216  0.4846685    0.00000       Uiso       1.00
       C56          C  0.5515293  0.5232334  0.4172411    0.00000       Uiso       1.00
       C57          C  0.5434813  0.4986796  0.4302544    0.00000       Uiso       1.00
       C58          C  0.5267562  0.4911352  0.4563636    0.00000       Uiso       1.00
       C59          C  0.5423337  0.5400128  0.4312981    0.00000       Uiso       1.00
       C60          C  0.5255904  0.5324495  0.4574111    0.00000       Uiso       1.00
       C61          C  0.5167865  0.5074599  0.4703338    0.00000       Uiso       1.00
       H37          H  0.4801286  0.4645640  0.4713715    0.00000       Uiso       1.00
       H38          H  0.4782321  0.5093085  0.4742738    0.00000       Uiso       1.00
       H39          H  0.5486649  0.5594298  0.4223345    0.00000       Uiso       1.00
       H40          H  0.5501545  0.4852035  0.4202282    0.00000       Uiso       1.00
       C62          C  0.5515285  0.5282994  0.5312343    0.00000       Uiso       1.00
       C63          C  0.5434813  0.5448056  0.5262672    0.00000       Uiso       1.00
       C64          C  0.5267565  0.5356236  0.5168835    0.00000       Uiso       1.00
       C65          C  0.5423334  0.5023248  0.5263727    0.00000       Uiso       1.00
       C66          C  0.5255892  0.4931425  0.5170045    0.00000       Uiso       1.00
       C67          C  0.5167855  0.5093278  0.5128855    0.00000       Uiso       1.00
       H41          H  0.4801364  0.5155743  0.5484940    0.00000       Uiso       1.00
       H42          H  0.4782421  0.4689169  0.5474886    0.00000       Uiso       1.00
       H43          H  0.5486628  0.4892403  0.5290113    0.00000       Uiso       1.00
       H44          H  0.5501511  0.5649549  0.5296210    0.00000       Uiso       1.00
       C68          C  0.4484743  0.5312213  0.5279690    0.00000       Uiso       1.00
       C69          C  0.4576714  0.5281129  0.5440337    0.00000       Uiso       1.00
       C70          C  0.4744138  0.5187481  0.5349973    0.00000       Uiso       1.00
       C71          C  0.4565182  0.5245050  0.5025965    0.00000       Uiso       1.00
       C72          C  0.4732416  0.5151259  0.4935793    0.00000       Uiso       1.00
       C73          C  0.4832146  0.5128772  0.5092283    0.00000       Uiso       1.00
       H45          H  0.5217628  0.5493041  0.5124462    0.00000       Uiso       1.00
       H46          H  0.5198719  0.5465075  0.4676954    0.00000       Uiso       1.00
       H47          H  0.4498474  0.5264752  0.4896152    0.00000       Uiso       1.00
       H48          H  0.4513452  0.5321321  0.5639866    0.00000       Uiso       1.00
       C74          C  0.1586173  0.6656212  0.6638790    0.00000       Uiso       1.00
       C75          C  0.1497045  0.6704971  0.6896818    0.00000       Uiso       1.00
       C76          C  0.1321736  0.6787289  0.6991980    0.00000       Uiso       1.00
       C77          C  0.1497041  0.6687494  0.6476933    0.00000       Uiso       1.00
       C78          C  0.1322607  0.6770810  0.6570464    0.00000       Uiso       1.00
       C79          C  0.1232278  0.6822788  0.6829715    0.00000       Uiso       1.00
       H49          H  0.8743417  0.6550254  0.9433540    0.00000       Uiso       1.00
       H50          H  0.8740904  0.6439854  0.6796672    0.00000       Uiso       1.00
       H51          H  0.1567319  0.6647936  0.6266140    0.00000       Uiso       1.00
       H52          H  0.1567327  0.6679801  0.7031712    0.00000       Uiso       1.00
       C80          C  0.8413900  0.6775070  0.9929940    0.00000       Uiso       1.00
       C81          C  0.8503028  0.6606171  0.9792052    0.00000       Uiso       1.00
       C82          C  0.8677462  0.6685503  0.9534237    0.00000       Uiso       1.00
       C83          C  0.8503031  0.7026058  0.9809526    0.00000       Uiso       1.00
       C84          C  0.8678343  0.7107075  0.9551937    0.00000       Uiso       1.00
       C85          C  0.8767796  0.6937400  0.9409445    0.00000       Uiso       1.00
       H53          H  0.1259164  0.6827984  0.7191373    0.00000       Uiso       1.00
       H54          H  0.1256672  0.9464899  0.7303066    0.00000       Uiso       1.00
       H55          H  0.8432751  0.7166572  0.9919364    0.00000       Uiso       1.00
       H56          H  0.8432747  0.6400995  0.9887503    0.00000       Uiso       1.00
       C86          C  0.8413868  0.6638806  0.6656204    0.00000       Uiso       1.00
       C87          C  0.8503001  0.6896837  0.6704962    0.00000       Uiso       1.00
       C88          C  0.8677433  0.6991938  0.6788349    0.00000       Uiso       1.00
       C89          C  0.8502999  0.6476948  0.6687487    0.00000       Uiso       1.00
       C90          C  0.8678318  0.6571248  0.6769758    0.00000       Uiso       1.00
       C91          C  0.8767768  0.6830376  0.6822801    0.00000       Uiso       1.00
       H57          H  0.1259148  0.9431187  0.6549481    0.00000       Uiso       1.00
       H58          H  0.1256648  0.6791757  0.6440280    0.00000       Uiso       1.00
       H59          H  0.8432716  0.6266153  0.6647932    0.00000       Uiso       1.00
       H60          H  0.8432720  0.7031732  0.6679792    0.00000       Uiso       1.00
       C92          C  0.1586191  0.9929972  0.6775033    0.00000       Uiso       1.00
       C93          C  0.1497058  0.9792081  0.6606135    0.00000       Uiso       1.00
       C94          C  0.1321736  0.9534455  0.6686292    0.00000       Uiso       1.00
       C95          C  0.1497062  0.9809558  0.7026020    0.00000       Uiso       1.00
       C96          C  0.1322627  0.9551808  0.7106927    0.00000       Uiso       1.00
       C97          C  0.1232286  0.9409502  0.6938012    0.00000       Uiso       1.00
       H61          H  0.8743388  0.7193140  0.6823099    0.00000       Uiso       1.00
       H62          H  0.8740919  0.7301051  0.9462436    0.00000       Uiso       1.00
       C98          C  0.0000022  0.7500015  0.7499987    0.00000       Uiso       1.00
       H63          H  0.1567345  0.9919397  0.7166532    0.00000       Uiso       1.00
       H64          H  0.1567337  0.9887531  0.6400961    0.00000       Uiso       1.00
       C99          C  0.1047766  0.6915119  0.6928980    0.00000       Uiso       1.00
      C100          C  0.0865684  0.6826444  0.7182484    0.00000       Uiso       1.00
      C101          C  0.0693838  0.6913720  0.7275113    0.00000       Uiso       1.00
      C102          C  0.1052260  0.7093833  0.6771116    0.00000       Uiso       1.00
      C103          C  0.0880623  0.7181302  0.6863736    0.00000       Uiso       1.00
      C104          C  0.0698359  0.7092737  0.7117350    0.00000       Uiso       1.00
       H65          H  0.9106478  0.6789088  0.8546193    0.00000       Uiso       1.00
       H66          H  0.9445260  0.6896421  0.6813464    0.00000       Uiso       1.00
       H67          H  0.1191649  0.7170489  0.6576946    0.00000       Uiso       1.00
       H68          H  0.0853785  0.6685533  0.7308216    0.00000       Uiso       1.00
      C105          C  0.8952310  0.7021300  0.9132549    0.00000       Uiso       1.00
      C106          C  0.8947800  0.6848193  0.8944733    0.00000       Uiso       1.00
      C107          C  0.9119430  0.6926387  0.8685591    0.00000       Uiso       1.00
      C108          C  0.9134404  0.7275165  0.9052688    0.00000       Uiso       1.00
      C109          C  0.9306246  0.7353375  0.8793522    0.00000       Uiso       1.00
      C110          C  0.9301706  0.7180345  0.8605441    0.00000       Uiso       1.00
       H69          H  0.0554936  0.6837574  0.7469671    0.00000       Uiso       1.00
       H70          H  0.0893565  0.8570300  0.7368255    0.00000       Uiso       1.00
       H71          H  0.9146310  0.7412559  0.9192162    0.00000       Uiso       1.00
       H72          H  0.8808392  0.6653022  0.8997059    0.00000       Uiso       1.00
      C111          C  0.8952285  0.6930995  0.6915182    0.00000       Uiso       1.00
      C112          C  0.8947732  0.7099523  0.7107569    0.00000       Uiso       1.00
      C113          C  0.9119381  0.7192969  0.7195060    0.00000       Uiso       1.00
      C114          C  0.9134431  0.6859311  0.6812869    0.00000       Uiso       1.00
      C115          C  0.9306297  0.6952965  0.6900162    0.00000       Uiso       1.00
      C116          C  0.9301715  0.7121388  0.7092845    0.00000       Uiso       1.00
       H73          H  0.0554812  0.8717462  0.6975611    0.00000       Uiso       1.00
       H74          H  0.0893539  0.7323204  0.6738130    0.00000       Uiso       1.00
       H75          H  0.9146369  0.6733887  0.6661434    0.00000       Uiso       1.00
       H76          H  0.8808298  0.7155237  0.7194693    0.00000       Uiso       1.00
      C117          C  0.1047768  0.9132662  0.7023271    0.00000       Uiso       1.00
      C118          C  0.0865629  0.9039282  0.6951942    0.00000       Uiso       1.00
      C119          C  0.0693760  0.8780171  0.7031187    0.00000       Uiso       1.00
      C120          C  0.1052305  0.8958423  0.7176573    0.00000       Uiso       1.00
      C121          C  0.0880650  0.8699322  0.7255606    0.00000       Uiso       1.00
      C122          C  0.0698325  0.8605655  0.7184361    0.00000       Uiso       1.00
       H77          H  0.9106445  0.7317289  0.7347433    0.00000       Uiso       1.00
       H78          H  0.9445161  0.7548916  0.8741203    0.00000       Uiso       1.00
       H79          H  0.1191728  0.9021137  0.7231294    0.00000       Uiso       1.00
       H80          H  0.0853698  0.9168316  0.6838169    0.00000       Uiso       1.00
      C123          C  0.0515323  0.7187722  0.7217017    0.00000       Uiso       1.00
      C124          C  0.0423370  0.7236341  0.7476768    0.00000       Uiso       1.00
      C125          C  0.0255928  0.7330019  0.7568582    0.00000       Uiso       1.00
      C126          C  0.0434833  0.7237369  0.7051963    0.00000       Uiso       1.00
      C127          C  0.0267573  0.7331189  0.7143782    0.00000       Uiso       1.00
      C128          C  0.0167874  0.7371190  0.7406731    0.00000       Uiso       1.00
       H81          H  0.9782406  0.7025135  0.7810789    0.00000       Uiso       1.00
       H82          H  0.9801351  0.7015040  0.7344270    0.00000       Uiso       1.00
       H83          H  0.0501528  0.7203833  0.6850471    0.00000       Uiso       1.00
       H84          H  0.0486671  0.7209994  0.7607626    0.00000       Uiso       1.00
      C129          C  0.9484744  0.7264497  0.8327457    0.00000       Uiso       1.00
      C130          C  0.9565222  0.7091229  0.8179895    0.00000       Uiso       1.00
      C131          C  0.9732471  0.7168267  0.7918869    0.00000       Uiso       1.00
      C132          C  0.9576704  0.7517104  0.8204381    0.00000       Uiso       1.00
      C133          C  0.9744135  0.7594137  0.7943310    0.00000       Uiso       1.00
      C134          C  0.9832172  0.7424460  0.7796621    0.00000       Uiso       1.00
       H85          H  0.0198741  0.7375643  0.7766360    0.00000       Uiso       1.00
       H86          H  0.0217713  0.7842013  0.7775365    0.00000       Uiso       1.00
       H87          H  0.9513394  0.7653360  0.8307769    0.00000       Uiso       1.00
       H88          H  0.9498488  0.6894730  0.8266371    0.00000       Uiso       1.00
      C135          C  0.9484749  0.7220290  0.7187796    0.00000       Uiso       1.00
      C136          C  0.9565222  0.7474033  0.7254894    0.00000       Uiso       1.00
      C137          C  0.9732472  0.7564230  0.7348663    0.00000       Uiso       1.00
      C138          C  0.9576698  0.7059639  0.7218915    0.00000       Uiso       1.00
      C139          C  0.9744139  0.7150021  0.7312536    0.00000       Uiso       1.00
      C140          C  0.9832179  0.7407733  0.7371187    0.00000       Uiso       1.00
       H89          H  0.0198667  0.7823130  0.7034987    0.00000       Uiso       1.00
       H90          H  0.0217604  0.7375538  0.7006997    0.00000       Uiso       1.00
       H91          H  0.9513400  0.6860095  0.7178781    0.00000       Uiso       1.00
       H92          H  0.9498528  0.7603837  0.7235143    0.00000       Uiso       1.00
      C141          C  0.0515294  0.8327631  0.7267742    0.00000       Uiso       1.00
      C142          C  0.0423321  0.8187078  0.7099952    0.00000       Uiso       1.00
      C143          C  0.0255895  0.7925944  0.7175553    0.00000       Uiso       1.00
      C144          C  0.0434855  0.8197460  0.7513254    0.00000       Uiso       1.00
      C145          C  0.0267618  0.7936363  0.7588658    0.00000       Uiso       1.00
      C146          C  0.0167886  0.7796687  0.7425420    0.00000       Uiso       1.00
       H93          H  0.9782410  0.7757317  0.7406764    0.00000       Uiso       1.00
       H94          H  0.9801322  0.7786300  0.7854313    0.00000       Uiso       1.00
       H95          H  0.0501564  0.8297659  0.7648056    0.00000       Uiso       1.00
       H96          H  0.0486584  0.8276782  0.6905829    0.00000       Uiso       1.00
      C147          C  0.6754926  0.5949772  0.5909169    0.00000       Uiso       1.00
        N1          N  0.6888459  0.5878060  0.5972818    0.00000       Uiso       1.00
      C148          C  0.7054735  0.6041631  0.6047175    0.00000       Uiso       1.00
      C149          C  0.7105108  0.6293721  0.6065776    0.00000       Uiso       1.00
      C150          C  0.7547853  0.6497418  0.6268259    0.00000       Uiso       1.00
      C151          C  0.7384044  0.6346344  0.6194811    0.00000       Uiso       1.00
      C152          C  0.7335485  0.6093831  0.6177063    0.00000       Uiso       1.00
      C153          C  0.7267415  0.6443499  0.6138550    0.00000       Uiso       1.00
      C154          C  0.7171406  0.5944886  0.6103447    0.00000       Uiso       1.00
        O1          O  0.7409614  0.5776303  0.6217778    0.00000       Uiso       1.00
       H97          H  0.8216201  0.6351563  0.6582704    0.00000       Uiso       1.00
       H98          H  0.7976726  0.6111333  0.6475703    0.00000       Uiso       1.00
       H99          H  0.7696213  0.5854365  0.6349892    0.00000       Uiso       1.00
      H100          H  0.7865108  0.6740631  0.6411467    0.00000       Uiso       1.00
      H101          H  0.6869818  0.5697459  0.5967626    0.00000       Uiso       1.00
      C155          C  0.8244216  0.6541898  0.6592078    0.00000       Uiso       1.00
        N2          N  0.8110684  0.6613611  0.6528428    0.00000       Uiso       1.00
      C156          C  0.7944408  0.6450040  0.6454071    0.00000       Uiso       1.00
      C157          C  0.7894036  0.6197950  0.6435469    0.00000       Uiso       1.00
      C158          C  0.7451290  0.5994252  0.6232986    0.00000       Uiso       1.00
      C159          C  0.7615098  0.6145326  0.6306435    0.00000       Uiso       1.00
      C160          C  0.7663658  0.6397840  0.6324183    0.00000       Uiso       1.00
      C161          C  0.7731728  0.6048170  0.6362696    0.00000       Uiso       1.00
      C162          C  0.7827737  0.6546785  0.6397799    0.00000       Uiso       1.00
        O2          O  0.7589529  0.6715367  0.6283468    0.00000       Uiso       1.00
      H102          H  0.6782942  0.6140108  0.5918543    0.00000       Uiso       1.00
      H103          H  0.7022418  0.6380338  0.6025544    0.00000       Uiso       1.00
      H104          H  0.7302930  0.6637305  0.6151354    0.00000       Uiso       1.00
      H105          H  0.7134035  0.5751040  0.6089779    0.00000       Uiso       1.00
      H106          H  0.8129326  0.6794212  0.6533620    0.00000       Uiso       1.00
      C163          C  0.6754906  0.5805133  0.2335932    0.00000       Uiso       1.00
        N3          N  0.6888439  0.6010378  0.2138750    0.00000       Uiso       1.00
      C164          C  0.7054712  0.6013081  0.1898120    0.00000       Uiso       1.00
      C165          C  0.7105080  0.5811360  0.1829148    0.00000       Uiso       1.00
      C166          C  0.7547821  0.6050406  0.1183922    0.00000       Uiso       1.00
      C167          C  0.7384015  0.6037673  0.1421178    0.00000       Uiso       1.00
      C168          C  0.7335460  0.6241629  0.1487484    0.00000       Uiso       1.00
      C169          C  0.7267385  0.5823888  0.1594068    0.00000       Uiso       1.00
      C170          C  0.7171384  0.6226496  0.1725177    0.00000       Uiso       1.00
        O3          O  0.7409593  0.6633288  0.1372637    0.00000       Uiso       1.00
      H107          H  0.8216168  0.6864608  0.0201133    0.00000       Uiso       1.00
      H108          H  0.7976696  0.6865364  0.0547608    0.00000       Uiso       1.00
      H109          H  0.7696189  0.6841822  0.0953927    0.00000       Uiso       1.00
      H110          H  0.7865071  0.6124446  0.0723463    0.00000       Uiso       1.00
      H111          H  0.6869800  0.6172339  0.2162583    0.00000       Uiso       1.00
      C171          C  0.8244181  0.6702285  0.0163746    0.00000       Uiso       1.00
        N4          N  0.8110647  0.6497040  0.0360928    0.00000       Uiso       1.00
      C172          C  0.7944375  0.6494338  0.0601558    0.00000       Uiso       1.00
      C173          C  0.7894006  0.6696058  0.0670529    0.00000       Uiso       1.00
      C174          C  0.7451265  0.6457013  0.1315755    0.00000       Uiso       1.00
      C175          C  0.7615072  0.6469746  0.1078499    0.00000       Uiso       1.00
      C176          C  0.7663627  0.6265790  0.1012194    0.00000       Uiso       1.00
      C177          C  0.7731701  0.6683531  0.0905609    0.00000       Uiso       1.00
      C178          C  0.7827703  0.6280922  0.0774501    0.00000       Uiso       1.00
        O4          O  0.7589494  0.5874131  0.1127040    0.00000       Uiso       1.00
      H112          H  0.6782919  0.5642810  0.2298544    0.00000       Uiso       1.00
      H113          H  0.7022390  0.5642054  0.1952070    0.00000       Uiso       1.00
      H114          H  0.7302898  0.5665596  0.1545750    0.00000       Uiso       1.00
      H115          H  0.7134015  0.6382973  0.1776215    0.00000       Uiso       1.00
      H116          H  0.8129286  0.6335080  0.0337095    0.00000       Uiso       1.00
      C179          C  0.3245096  0.5909168  0.5949768    0.00000       Uiso       1.00
        N5          N  0.3111563  0.5972817  0.5878056    0.00000       Uiso       1.00
      C180          C  0.2945290  0.6047175  0.6041625    0.00000       Uiso       1.00
      C181          C  0.2894922  0.6065779  0.6293713    0.00000       Uiso       1.00
      C182          C  0.2452181  0.6268265  0.6497407    0.00000       Uiso       1.00
      C183          C  0.2615987  0.6194814  0.6346335    0.00000       Uiso       1.00
      C184          C  0.2664543  0.6177064  0.6093823    0.00000       Uiso       1.00
      C185          C  0.2732617  0.6138554  0.6443490    0.00000       Uiso       1.00
      C186          C  0.2828619  0.6103447  0.5944880    0.00000       Uiso       1.00
        O5          O  0.2590410  0.6217777  0.5776297    0.00000       Uiso       1.00
      H117          H  0.1783835  0.6582708  0.6351549    0.00000       Uiso       1.00
      H118          H  0.2023307  0.6475705  0.6111321    0.00000       Uiso       1.00
      H119          H  0.2303814  0.6349892  0.5854357    0.00000       Uiso       1.00
      H120          H  0.2134931  0.6411475  0.6740617    0.00000       Uiso       1.00
      H121          H  0.3130202  0.5967624  0.5697456    0.00000       Uiso       1.00
      C187          C  0.1755823  0.6592084  0.6541883    0.00000       Uiso       1.00
        N6          N  0.1889356  0.6528434  0.6613596    0.00000       Uiso       1.00
      C188          C  0.2055628  0.6454076  0.6450027    0.00000       Uiso       1.00
      C189          C  0.2105997  0.6435473  0.6197938    0.00000       Uiso       1.00
      C190          C  0.2548738  0.6232988  0.5994244    0.00000       Uiso       1.00
      C191          C  0.2384931  0.6306437  0.6145317    0.00000       Uiso       1.00
      C192          C  0.2336376  0.6324188  0.6397828    0.00000       Uiso       1.00
      C193          C  0.2268302  0.6362697  0.6048161    0.00000       Uiso       1.00
      C194          C  0.2172299  0.6397805  0.6546772    0.00000       Uiso       1.00
        O6          O  0.2410508  0.6283475  0.6715355    0.00000       Uiso       1.00
      H122          H  0.3217083  0.5918544  0.6140103    0.00000       Uiso       1.00
      H123          H  0.2977612  0.6025547  0.6380330    0.00000       Uiso       1.00
      H124          H  0.2697104  0.6151360  0.6637295    0.00000       Uiso       1.00
      H125          H  0.2865988  0.6089777  0.5751035    0.00000       Uiso       1.00
      H126          H  0.1870717  0.6533629  0.6794196    0.00000       Uiso       1.00
      C195          C  0.3245069  0.2335908  0.5805158    0.00000       Uiso       1.00
        N7          N  0.3111536  0.2138727  0.6010404    0.00000       Uiso       1.00
      C196          C  0.2945261  0.1898095  0.6013108    0.00000       Uiso       1.00
      C197          C  0.2894889  0.1829121  0.5811389    0.00000       Uiso       1.00
      C198          C  0.2452142  0.1183893  0.6050438    0.00000       Uiso       1.00
      C199          C  0.2615951  0.1421150  0.6037703    0.00000       Uiso       1.00
      C200          C  0.2664510  0.1487457  0.6241658    0.00000       Uiso       1.00
      C201          C  0.2732581  0.1594040  0.5823918    0.00000       Uiso       1.00
      C202          C  0.2828590  0.1725152  0.6226523    0.00000       Uiso       1.00
        O7          O  0.2590381  0.1372614  0.6633315    0.00000       Uiso       1.00
      H127          H  0.1783794  0.0201103  0.6864641    0.00000       Uiso       1.00
      H128          H  0.2023270  0.0547580  0.6865396    0.00000       Uiso       1.00
      H129          H  0.2303782  0.0953902  0.6841851    0.00000       Uiso       1.00
      H130          H  0.2134887  0.0723430  0.6124480    0.00000       Uiso       1.00
      H131          H  0.3130178  0.2162561  0.6172363    0.00000       Uiso       1.00
      C203          C  0.1755778  0.0163714  0.6702321    0.00000       Uiso       1.00
        N8          N  0.1889312  0.0360895  0.6497076    0.00000       Uiso       1.00
      C204          C  0.2055587  0.0601527  0.6494371    0.00000       Uiso       1.00
      C205          C  0.2105959  0.0670501  0.6696089    0.00000       Uiso       1.00
      C206          C  0.2548705  0.1315729  0.6457042    0.00000       Uiso       1.00
      C207          C  0.2384896  0.1078472  0.6469775    0.00000       Uiso       1.00
      C208          C  0.2336337  0.1012165  0.6265821    0.00000       Uiso       1.00
      C209          C  0.2268267  0.0905582  0.6683561    0.00000       Uiso       1.00
      C210          C  0.2172258  0.0774470  0.6280956    0.00000       Uiso       1.00
        O8          O  0.2410467  0.1127008  0.5874164    0.00000       Uiso       1.00
      H132          H  0.3217054  0.2298519  0.5642837    0.00000       Uiso       1.00
      H133          H  0.2977578  0.1952042  0.5642083    0.00000       Uiso       1.00
      H134          H  0.2697065  0.1545720  0.5665628    0.00000       Uiso       1.00
      H135          H  0.2865961  0.1776192  0.6382998    0.00000       Uiso       1.00
      H136          H  0.1870670  0.0337061  0.6335116    0.00000       Uiso       1.00
