data_75
_audit_creation_date              0000-00-00
_audit_creation_method            'LanYouShi'
_symmetry_space_group_name_H-M    'P1'
_cell_length_a                    60.6680984
_cell_length_b                    57.4905014
_cell_length_c                    42.0906982
_cell_angle_alpha                 95.1937027
_cell_angle_beta                  107.8582993
_cell_angle_gamma                 116.4597015
loop_
_atom_site_label
_atom_site_type_symbol
_atom_site_fract_x
_atom_site_fract_y
_atom_site_fract_z
_atom_site_U_iso_or_equiv
_atom_site_adp_type
_atom_site_occupancy
        C1          C  0.6792206  0.5849106  0.3616260    0.00000       Uiso       1.00
        C2          C  0.6696696  0.5593542  0.3675656    0.00000       Uiso       1.00
        C3          C  0.6497492  0.5498630  0.3815169    0.00000       Uiso       1.00
        C4          C  0.6685907  0.6008258  0.3691954    0.00000       Uiso       1.00
        C5          C  0.6485940  0.5913610  0.3829232    0.00000       Uiso       1.00
        C6          C  0.6387676  0.5656903  0.3895998    0.00000       Uiso       1.00
        H1          H  0.3573141  0.2909286  0.3734855    0.00000       Uiso       1.00
        H2          H  0.3497741  0.5512561  0.3835457    0.00000       Uiso       1.00
        H3          H  0.6761009  0.6216931  0.3644290    0.00000       Uiso       1.00
        H4          H  0.6780680  0.5460784  0.3614573    0.00000       Uiso       1.00
        C7          C  0.3206462  0.2424930  0.4059646    0.00000       Uiso       1.00
        C8          C  0.3301866  0.2548310  0.3822261    0.00000       Uiso       1.00
        C9          C  0.3501934  0.2823013  0.3925482    0.00000       Uiso       1.00
       C10          C  0.3313010  0.2576348  0.4402141    0.00000       Uiso       1.00
       C11          C  0.3512356  0.2852111  0.4506100    0.00000       Uiso       1.00
       C12          C  0.3611229  0.2982222  0.4269668    0.00000       Uiso       1.00
        H5          H  0.6433179  0.5302542  0.3865538    0.00000       Uiso       1.00
        H6          H  0.6495751  0.5473599  0.7507442    0.00000       Uiso       1.00
        H7          H  0.3237997  0.2478752  0.4599375    0.00000       Uiso       1.00
        H8          H  0.3217678  0.2427630  0.3542084    0.00000       Uiso       1.00
       C13          C  0.3122348  0.5658363  0.4186722    0.00000       Uiso       1.00
       C14          C  0.3233242  0.5642692  0.4522650    0.00000       Uiso       1.00
       C15          C  0.3442067  0.5581453  0.4614747    0.00000       Uiso       1.00
       C16          C  0.3222098  0.5614654  0.3942770    0.00000       Uiso       1.00
       C17          C  0.3430226  0.5551608  0.4033446    0.00000       Uiso       1.00
       C18          C  0.3544870  0.5532956  0.4371877    0.00000       Uiso       1.00
        H9          H  0.6483709  0.6220399  0.7527784    0.00000       Uiso       1.00
       H10          H  0.6406081  0.6041480  0.3878713    0.00000       Uiso       1.00
       H11          H  0.3134442  0.5627320  0.3667834    0.00000       Uiso       1.00
       H12          H  0.3154760  0.5678442  0.4725124    0.00000       Uiso       1.00
       C19          C  0.6879090  0.6067713  0.8137441    0.00000       Uiso       1.00
       C20          C  0.6768302  0.6215568  0.7979501    0.00000       Uiso       1.00
       C21          C  0.6559994  0.6097718  0.7645332    0.00000       Uiso       1.00
       C22          C  0.6779090  0.5800853  0.7963203    0.00000       Uiso       1.00
       C23          C  0.6570126  0.5681996  0.7630597    0.00000       Uiso       1.00
       C24          C  0.6456248  0.5827944  0.7462501    0.00000       Uiso       1.00
       H13          H  0.3525062  0.5575657  0.4879025    0.00000       Uiso       1.00
       H14          H  0.3585362  0.2964522  0.4771193    0.00000       Uiso       1.00
       C25          C  0.4999999  0.4999995  0.4999990    0.00000       Uiso       1.00
       H15          H  0.6866658  0.5677109  0.8088571    0.00000       Uiso       1.00
       H16          H  0.6846987  0.6433256  0.8118288    0.00000       Uiso       1.00
       C26          C  0.6174863  0.5557184  0.4049833    0.00000       Uiso       1.00
       C27          C  0.5983828  0.5279720  0.3966049    0.00000       Uiso       1.00
       C28          C  0.5787175  0.5186694  0.4110423    0.00000       Uiso       1.00
       C29          C  0.6160737  0.5739115  0.4283140    0.00000       Uiso       1.00
       C30          C  0.5963662  0.5648916  0.4426612    0.00000       Uiso       1.00
       C31          C  0.5776470  0.5371812  0.4340761    0.00000       Uiso       1.00
       H17          H  0.6306163  0.5951756  0.4359102    0.00000       Uiso       1.00
       H18          H  0.5985205  0.5135166  0.3784307    0.00000       Uiso       1.00
       C32          C  0.3824097  0.3280137  0.4378793    0.00000       Uiso       1.00
       C33          C  0.3828868  0.3442038  0.4143203    0.00000       Uiso       1.00
       C34          C  0.4025905  0.3718427  0.4241368    0.00000       Uiso       1.00
       C35          C  0.4024532  0.3406266  0.4718848    0.00000       Uiso       1.00
       C36          C  0.4221297  0.3683295  0.4821115    0.00000       Uiso       1.00
       C37          C  0.4222566  0.3839863  0.4581543    0.00000       Uiso       1.00
       H19          H  0.4030399  0.3288349  0.4904357    0.00000       Uiso       1.00
       H20          H  0.3676233  0.3354813  0.3883439    0.00000       Uiso       1.00
       C38          C  0.3767395  0.5462334  0.4470745    0.00000       Uiso       1.00
       C39          C  0.3790458  0.5315032  0.4719732    0.00000       Uiso       1.00
       C40          C  0.3996620  0.5249134  0.4814181    0.00000       Uiso       1.00
       C41          C  0.3958921  0.5540778  0.4317841    0.00000       Uiso       1.00
       C42          C  0.4164645  0.5473881  0.4407828    0.00000       Uiso       1.00
       C43          C  0.4184158  0.5328222  0.4657410    0.00000       Uiso       1.00
       H21          H  0.3950818  0.5657467  0.4131209    0.00000       Uiso       1.00
       H22          H  0.3645057  0.5246754  0.4837180    0.00000       Uiso       1.00
       C44          C  0.6233609  0.5700310  0.7100663    0.00000       Uiso       1.00
       C45          C  0.6032715  0.5773095  0.6997299    0.00000       Uiso       1.00
       C46          C  0.5826860  0.5655982  0.6660639    0.00000       Uiso       1.00
       C47          C  0.6219847  0.5503859  0.6853979    0.00000       Uiso       1.00
       C48          C  0.6013738  0.5383551  0.6517920    0.00000       Uiso       1.00
       C49          C  0.5816783  0.5460055  0.6420318    0.00000       Uiso       1.00
       H23          H  0.6372356  0.5446807  0.6920310    0.00000       Uiso       1.00
       H24          H  0.6033745  0.5918837  0.7180288    0.00000       Uiso       1.00
       C50          C  0.5630305  0.5731755  0.6558716    0.00000       Uiso       1.00
       C51          C  0.5428852  0.5617427  0.6222836    0.00000       Uiso       1.00
       C52          C  0.4417409  0.3807664  0.5160140    0.00000       Uiso       1.00
       C53          C  0.4609737  0.4083391  0.5261098    0.00000       Uiso       1.00
       H25          H  0.4420972  0.3691699  0.5348783    0.00000       Uiso       1.00
       H26          H  0.4756405  0.4173087  0.5525248    0.00000       Uiso       1.00
       H27          H  0.5633448  0.5881445  0.6738719    0.00000       Uiso       1.00
       H28          H  0.5282024  0.5682255  0.6152167    0.00000       Uiso       1.00
       C54          C  0.5579563  0.5279530  0.4487635    0.00000       Uiso       1.00
       C55          C  0.5395654  0.5002126  0.4407440    0.00000       Uiso       1.00
       C56          C  0.5205421  0.4910758  0.4561932    0.00000       Uiso       1.00
       C57          C  0.5569689  0.5464484  0.4718674    0.00000       Uiso       1.00
       C58          C  0.5376614  0.5371246  0.4867574    0.00000       Uiso       1.00
       C59          C  0.5188708  0.5092953  0.4793198    0.00000       Uiso       1.00
       H29          H  0.4607398  0.4671096  0.4362124    0.00000       Uiso       1.00
       H30          H  0.4903130  0.5307870  0.4529511    0.00000       Uiso       1.00
       C60          C  0.4419568  0.4118859  0.4682990    0.00000       Uiso       1.00
       C61          C  0.4420056  0.4275301  0.4443861    0.00000       Uiso       1.00
       C62          C  0.4613387  0.4552807  0.4547609    0.00000       Uiso       1.00
       C63          C  0.4613084  0.4241842  0.5024806    0.00000       Uiso       1.00
       C64          C  0.4803539  0.4520942  0.5127057    0.00000       Uiso       1.00
       C65          C  0.4810803  0.4683433  0.4890392    0.00000       Uiso       1.00
       H31          H  0.5076914  0.4695976  0.4506758    0.00000       Uiso       1.00
       H32          H  0.5397710  0.4887677  0.5319483    0.00000       Uiso       1.00
       C66          C  0.4390279  0.5259715  0.4748482    0.00000       Uiso       1.00
       C67          C  0.4408980  0.5113364  0.4996868    0.00000       Uiso       1.00
       C68          C  0.4611280  0.5042422  0.5082074    0.00000       Uiso       1.00
       C69          C  0.4574679  0.5333979  0.4587072    0.00000       Uiso       1.00
       C70          C  0.4774270  0.5258523  0.4671111    0.00000       Uiso       1.00
       C71          C  0.4799937  0.5113314  0.4923621    0.00000       Uiso       1.00
       H33          H  0.5080060  0.5385941  0.5568263    0.00000       Uiso       1.00
       H34          H  0.5375427  0.5515893  0.5049953    0.00000       Uiso       1.00
       C72          C  0.5610597  0.5341882  0.6080897    0.00000       Uiso       1.00
       C73          C  0.5416638  0.5421991  0.5980621    0.00000       Uiso       1.00
       C74          C  0.5216810  0.5309704  0.5639766    0.00000       Uiso       1.00
       C75          C  0.5601251  0.5146881  0.5840665    0.00000       Uiso       1.00
       C76          C  0.5398701  0.5033535  0.5502797    0.00000       Uiso       1.00
       C77          C  0.5200548  0.5110283  0.5392733    0.00000       Uiso       1.00
       H35          H  0.4619419  0.4925347  0.5268708    0.00000       Uiso       1.00
       H36          H  0.4939871  0.4609974  0.5395235    0.00000       Uiso       1.00
       C78          C  0.4553141  0.5479371  0.4338808    0.00000       Uiso       1.00
       C79          C  0.4351817  0.5549578  0.4251767    0.00000       Uiso       1.00
       C80          C  0.4221523  0.5036626  0.5152335    0.00000       Uiso       1.00
       C81          C  0.4017842  0.5103306  0.5061840    0.00000       Uiso       1.00
       C82          C  0.5408359  0.4819653  0.4177188    0.00000       Uiso       1.00
       C83          C  0.5600530  0.4910809  0.4029344    0.00000       Uiso       1.00
       C84          C  0.5756680  0.5740324  0.4801134    0.00000       Uiso       1.00
       C85          C  0.5951303  0.5831281  0.4657346    0.00000       Uiso       1.00
       C86          C  0.5798071  0.5071457  0.5941525    0.00000       Uiso       1.00
       C87          C  0.6001813  0.5188524  0.6275561    0.00000       Uiso       1.00
       C88          C  0.4223635  0.4151668  0.4105093    0.00000       Uiso       1.00
       C89          C  0.4028941  0.3876961  0.4005324    0.00000       Uiso       1.00
       H37          H  0.4219252  0.4268047  0.3916872    0.00000       Uiso       1.00
       H38          H  0.3879758  0.3788389  0.3742779    0.00000       Uiso       1.00
       H39          H  0.3875962  0.5039943  0.5185421    0.00000       Uiso       1.00
       H40          H  0.4231148  0.4923044  0.5343125    0.00000       Uiso       1.00
       H41          H  0.4692510  0.5538948  0.4211200    0.00000       Uiso       1.00
       H42          H  0.4341359  0.5661893  0.4059769    0.00000       Uiso       1.00
       H43          H  0.6093134  0.6045011  0.4727608    0.00000       Uiso       1.00
       H44          H  0.5753778  0.5886415  0.4979224    0.00000       Uiso       1.00
       H45          H  0.5269184  0.4605457  0.4111244    0.00000       Uiso       1.00
       H46          H  0.5604375  0.4764722  0.3852719    0.00000       Uiso       1.00
       H47          H  0.6150998  0.5126747  0.6344248    0.00000       Uiso       1.00
       H48          H  0.5795676  0.4922605  0.5760902    0.00000       Uiso       1.00
       C90          C  0.7323936  0.6284544  0.3345731    0.00000       Uiso       1.00
       C91          C  0.7418160  0.6114080  0.3266994    0.00000       Uiso       1.00
       C92          C  0.7627792  0.6203820  0.3145293    0.00000       Uiso       1.00
       C93          C  0.7441802  0.6545963  0.3307267    0.00000       Uiso       1.00
       C94          C  0.7652133  0.6636821  0.3187899    0.00000       Uiso       1.00
       C95          C  0.7749500  0.6467505  0.3102167    0.00000       Uiso       1.00
       H49          H  0.0576968  0.6407040  0.3287371    0.00000       Uiso       1.00
       H50          H  0.0733245  0.9125607  0.3542917    0.00000       Uiso       1.00
       H51          H  0.7367887  0.6687906  0.3371140    0.00000       Uiso       1.00
       H52          H  0.7324781  0.5900458  0.3297710    0.00000       Uiso       1.00
       C96          C  0.0957080  0.6253676  0.2955822    0.00000       Uiso       1.00
       C97          C  0.0851328  0.6298320  0.3191612    0.00000       Uiso       1.00
       C98          C  0.0656660  0.6378986  0.3098966    0.00000       Uiso       1.00
       C99          C  0.0866301  0.6287874  0.2625284    0.00000       Uiso       1.00
      C100          C  0.0672442  0.6370282  0.2532155    0.00000       Uiso       1.00
      C101          C  0.0563333  0.6418369  0.2767420    0.00000       Uiso       1.00
       H53          H  0.7691018  0.6064097  0.3078936    0.00000       Uiso       1.00
       H54          H  0.7792591  0.6000556  0.9522520    0.00000       Uiso       1.00
       H55          H  0.0949903  0.6251660  0.2429435    0.00000       Uiso       1.00
       H56          H  0.0922603  0.6270707  0.3462016    0.00000       Uiso       1.00
      C102          C  0.1141412  0.9620956  0.3269823    0.00000       Uiso       1.00
      C103          C  0.1041107  0.9481149  0.2923059    0.00000       Uiso       1.00
      C104          C  0.0827361  0.9211847  0.2795749    0.00000       Uiso       1.00
      C105          C  0.1026134  0.9491596  0.3489387    0.00000       Uiso       1.00
      C106          C  0.0812996  0.9221199  0.3363328    0.00000       Uiso       1.00
      C107          C  0.0708837  0.9074599  0.3013199    0.00000       Uiso       1.00
       H57          H  0.7827122  0.6771546  0.9602850    0.00000       Uiso       1.00
       H58          H  0.7740589  0.6842030  0.3167340    0.00000       Uiso       1.00
       H59          H  0.1105011  0.9602847  0.3772740    0.00000       Uiso       1.00
       H60          H  0.1132311  0.9583799  0.2740159    0.00000       Uiso       1.00
      C108          C  0.7440682  0.6203099  0.8930225    0.00000       Uiso       1.00
      C109          C  0.7552515  0.6468727  0.9119935    0.00000       Uiso       1.00
      C110          C  0.7749917  0.6566967  0.9460842    0.00000       Uiso       1.00
      C111          C  0.7528872  0.6036844  0.9079661    0.00000       Uiso       1.00
      C112          C  0.7726994  0.6134620  0.9418994    0.00000       Uiso       1.00
      C113          C  0.7841521  0.6401795  0.9618838    0.00000       Uiso       1.00
       H61          H  0.0753030  0.9112628  0.2524399    0.00000       Uiso       1.00
       H62          H  0.0611835  0.6401053  0.2276997    0.00000       Uiso       1.00
      C114          C  0.9215804  0.7090562  0.2125423    0.00000       Uiso       1.00
       H63          H  0.7440308  0.5819864  0.8928285    0.00000       Uiso       1.00
       H64          H  0.7483415  0.6607311  0.9001715    0.00000       Uiso       1.00
      C115          C  0.7973714  0.6564850  0.2967678    0.00000       Uiso       1.00
      C116          C  0.8159818  0.6471671  0.3039652    0.00000       Uiso       1.00
      C117          C  0.8367081  0.6560624  0.2913083    0.00000       Uiso       1.00
      C118          C  0.8003833  0.6752428  0.2764934    0.00000       Uiso       1.00
      C119          C  0.8211571  0.6844710  0.2639680    0.00000       Uiso       1.00
      C120          C  0.8393617  0.6748272  0.2713196    0.00000       Uiso       1.00
       H65          H  0.7862740  0.6824214  0.2698389    0.00000       Uiso       1.00
       H66          H  0.8146239  0.6332003  0.3198546    0.00000       Uiso       1.00
      C121          C  0.0356339  0.6509967  0.2670277    0.00000       Uiso       1.00
      C122          C  0.0345546  0.6681622  0.2921953    0.00000       Uiso       1.00
      C123          C  0.0153838  0.6767188  0.2834907    0.00000       Uiso       1.00
      C124          C  0.0167580  0.6427505  0.2325783    0.00000       Uiso       1.00
      C125          C  0.9976355  0.6513787  0.2234838    0.00000       Uiso       1.00
      C126          C  0.9968858  0.6683600  0.2490199    0.00000       Uiso       1.00
       H67          H  0.0166391  0.6292750  0.2127537    0.00000       Uiso       1.00
       H68          H  0.0489504  0.6753443  0.3186246    0.00000       Uiso       1.00
      C127          C  0.0480948  0.8782132  0.2876114    0.00000       Uiso       1.00
      C128          C  0.0463946  0.8597701  0.2609375    0.00000       Uiso       1.00
      C129          C  0.0252928  0.8326125  0.2479513    0.00000       Uiso       1.00
      C130          C  0.0278200  0.8683721  0.3009831    0.00000       Uiso       1.00
      C131          C  0.0067410  0.8411769  0.2884273    0.00000       Uiso       1.00
      C132          C  0.0054153  0.8232424  0.2617659    0.00000       Uiso       1.00
       H69          H  0.0281619  0.8819448  0.3209326    0.00000       Uiso       1.00
       H70          H  0.0617680  0.8663464  0.2505367    0.00000       Uiso       1.00
      C133          C  0.8052248  0.6505314  0.9987565    0.00000       Uiso       1.00
      C134          C  0.8257610  0.6779226  0.0126333    0.00000       Uiso       1.00
      C135          C  0.8452383  0.6875957  0.0469440    0.00000       Uiso       1.00
      C136          C  0.8049977  0.6330642  0.0205358    0.00000       Uiso       1.00
      C137          C  0.8244951  0.6424339  0.0547489    0.00000       Uiso       1.00
      C138          C  0.8446603  0.6697940  0.0680567    0.00000       Uiso       1.00
       H71          H  0.7893484  0.6121459  0.0111665    0.00000       Uiso       1.00
       H72          H  0.8268794  0.6917712  0.9966052    0.00000       Uiso       1.00
      C139          C  0.8653409  0.7148637  0.0606602    0.00000       Uiso       1.00
      C140          C  0.8843741  0.7243898  0.0948701    0.00000       Uiso       1.00
      C141          C  0.9791973  0.6433772  0.1891720    0.00000       Uiso       1.00
      C142          C  0.9605243  0.6523094  0.1802501    0.00000       Uiso       1.00
       H73          H  0.9793363  0.6303087  0.1690979    0.00000       Uiso       1.00
       H74          H  0.9467723  0.6459361  0.1535061    0.00000       Uiso       1.00
       H75          H  0.8662381  0.7289237  0.0449465    0.00000       Uiso       1.00
       H76          H  0.8994384  0.7455700  0.1046887    0.00000       Uiso       1.00
      C143          C  0.8601274  0.6838104  0.2584309    0.00000       Uiso       1.00
      C144          C  0.8780166  0.6737903  0.2651786    0.00000       Uiso       1.00
      C145          C  0.8981280  0.6821825  0.2514626    0.00000       Uiso       1.00
      C146          C  0.8626978  0.7024747  0.2383598    0.00000       Uiso       1.00
      C147          C  0.8830733  0.7109793  0.2252069    0.00000       Uiso       1.00
      C148          C  0.9013993  0.7012279  0.2314277    0.00000       Uiso       1.00
       H77          H  0.9584465  0.7167391  0.2761732    0.00000       Uiso       1.00
       H78          H  0.9303911  0.7520798  0.2640731    0.00000       Uiso       1.00
      C149          C  0.9777405  0.6771694  0.2400284    0.00000       Uiso       1.00
      C150          C  0.9770733  0.6942115  0.2655302    0.00000       Uiso       1.00
      C151          C  0.9583138  0.7032140  0.2563443    0.00000       Uiso       1.00
      C152          C  0.9595793  0.6692651  0.2054607    0.00000       Uiso       1.00
      C153          C  0.9411156  0.6787161  0.1964825    0.00000       Uiso       1.00
      C154          C  0.9397752  0.6957051  0.2217287    0.00000       Uiso       1.00
       H79          H  0.9105725  0.6730443  0.2558164    0.00000       Uiso       1.00
       H80          H  0.8815231  0.6575059  0.1742268    0.00000       Uiso       1.00
      C155          C  0.9842955  0.7958394  0.2490769    0.00000       Uiso       1.00
      C156          C  0.9830468  0.7779191  0.2225349    0.00000       Uiso       1.00
      C157          C  0.9622895  0.7506673  0.2104418    0.00000       Uiso       1.00
      C158          C  0.9647087  0.7863051  0.2633260    0.00000       Uiso       1.00
      C159          C  0.9442136  0.7588619  0.2513253    0.00000       Uiso       1.00
      C160          C  0.9422655  0.7403625  0.2242976    0.00000       Uiso       1.00
       H81          H  0.9169090  0.7378235  0.1608180    0.00000       Uiso       1.00
       H82          H  0.8844147  0.7249340  0.2092535    0.00000       Uiso       1.00
      C161          C  0.8641567  0.6794049  0.1026286    0.00000       Uiso       1.00
      C162          C  0.8840102  0.7068545  0.1162045    0.00000       Uiso       1.00
      C163          C  0.9028589  0.7164550  0.1509067    0.00000       Uiso       1.00
      C164          C  0.8635060  0.6616262  0.1237346    0.00000       Uiso       1.00
      C165          C  0.8826467  0.6713682  0.1581677    0.00000       Uiso       1.00
      C166          C  0.9028812  0.6989299  0.1727170    0.00000       Uiso       1.00
       H83          H  0.9619427  0.7370517  0.1904866    0.00000       Uiso       1.00
       H84          H  0.9284492  0.6732578  0.1694780    0.00000       Uiso       1.00
      C167          C  0.9662489  0.8044023  0.2898827    0.00000       Uiso       1.00
      C168          C  0.9868951  0.8314936  0.3021325    0.00000       Uiso       1.00
      C169          C  0.0029166  0.7875268  0.2088780    0.00000       Uiso       1.00
      C170          C  0.0237814  0.8145044  0.2214525    0.00000       Uiso       1.00
      C171          C  0.8751638  0.6551003  0.2851660    0.00000       Uiso       1.00
      C172          C  0.8548808  0.6464664  0.2982005    0.00000       Uiso       1.00
      C173          C  0.8444954  0.7120258  0.2313269    0.00000       Uiso       1.00
      C174          C  0.8239760  0.7031140  0.2439271    0.00000       Uiso       1.00
      C175          C  0.8433722  0.6343732  0.1101236    0.00000       Uiso       1.00
      C176          C  0.8241017  0.6249128  0.0760989    0.00000       Uiso       1.00
      C177          C  0.9955466  0.7023165  0.2998307    0.00000       Uiso       1.00
      C178          C  0.0144725  0.6937119  0.3086824    0.00000       Uiso       1.00
       H85          H  0.9954956  0.7155048  0.3198803    0.00000       Uiso       1.00
       H86          H  0.0284949  0.7004356  0.3353188    0.00000       Uiso       1.00
       H87          H  0.0388315  0.8212097  0.2104667    0.00000       Uiso       1.00
       H88          H  0.0024445  0.7741026  0.1885409    0.00000       Uiso       1.00
       H89          H  0.9514300  0.7975746  0.3012483    0.00000       Uiso       1.00
       H90          H  0.9874444  0.8448755  0.3225830    0.00000       Uiso       1.00
       H91          H  0.8102166  0.7107800  0.2378956    0.00000       Uiso       1.00
       H92          H  0.8459994  0.7263147  0.2158369    0.00000       Uiso       1.00
       H93          H  0.8886662  0.6471086  0.2907313    0.00000       Uiso       1.00
       H94          H  0.8532856  0.6320792  0.3135339    0.00000       Uiso       1.00
       H95          H  0.8087933  0.6038244  0.0664822    0.00000       Uiso       1.00
       H96          H  0.8423973  0.6203291  0.1258989    0.00000       Uiso       1.00
        N1          N  0.7279092  0.6132628  0.8575346    0.00000       Uiso       1.00
        O1          O  0.7364950  0.6097236  0.8351179    0.00000       Uiso       1.00
        N2          N  0.7049513  0.6156187  0.8491319    0.00000       Uiso       1.00
        O2          O  0.6967950  0.6198950  0.8717252    0.00000       Uiso       1.00
        N3          N  0.7174435  0.6192594  0.3552008    0.00000       Uiso       1.00
        O3          O  0.7266842  0.6321059  0.3861329    0.00000       Uiso       1.00
        N4          N  0.6951470  0.5932763  0.3419867    0.00000       Uiso       1.00
        O4          O  0.6863643  0.5801561  0.3113020    0.00000       Uiso       1.00
      C179          C  0.2923135  0.5704243  0.4096416    0.00000       Uiso       1.00
        N5          N  0.2761269  0.5748669  0.3828807    0.00000       Uiso       1.00
      C180          C  0.2566840  0.5805658  0.3845090    0.00000       Uiso       1.00
      C181          C  0.2513648  0.5824259  0.4129967    0.00000       Uiso       1.00
      C182          C  0.1989402  0.5974473  0.3852869    0.00000       Uiso       1.00
      C183          C  0.2181231  0.5918397  0.3850747    0.00000       Uiso       1.00
      C184          C  0.2232241  0.5900401  0.3562998    0.00000       Uiso       1.00
      C185          C  0.2323580  0.5879822  0.4132193    0.00000       Uiso       1.00
      C186          C  0.2424453  0.5844249  0.3564160    0.00000       Uiso       1.00
        O5          O  0.2134556  0.5923231  0.3030581    0.00000       Uiso       1.00
       H97          H  0.1185249  0.6198236  0.2807964    0.00000       Uiso       1.00
       H98          H  0.1793685  0.6020112  0.2776855    0.00000       Uiso       1.00
       H99          H  0.1616489  0.6082752  0.3788728    0.00000       Uiso       1.00
      H100          H  0.2778494  0.5741209  0.3602705    0.00000       Uiso       1.00
      C187          C  0.1157078  0.6208912  0.3035695    0.00000       Uiso       1.00
        N6          N  0.1318944  0.6164486  0.3303303    0.00000       Uiso       1.00
      C188          C  0.1513373  0.6107498  0.3287020    0.00000       Uiso       1.00
      C189          C  0.1566566  0.6088896  0.3002143    0.00000       Uiso       1.00
      C190          C  0.2090811  0.5938683  0.3279242    0.00000       Uiso       1.00
      C191          C  0.1898982  0.5994759  0.3281364    0.00000       Uiso       1.00
      C192          C  0.1847972  0.6012754  0.3569112    0.00000       Uiso       1.00
      C193          C  0.1756634  0.6033333  0.2999917    0.00000       Uiso       1.00
      C194          C  0.1655760  0.6068907  0.3567951    0.00000       Uiso       1.00
        O6          O  0.1945658  0.5989925  0.4101529    0.00000       Uiso       1.00
      H101          H  0.2894965  0.5714920  0.4324146    0.00000       Uiso       1.00
      H102          H  0.2286528  0.5893043  0.4355256    0.00000       Uiso       1.00
      H103          H  0.2463724  0.5830402  0.3343382    0.00000       Uiso       1.00
      H104          H  0.1301719  0.6171947  0.3529405    0.00000       Uiso       1.00
      C195          C  0.3015058  0.2175108  0.3963363    0.00000       Uiso       1.00
        N7          N  0.2867854  0.1969317  0.4083336    0.00000       Uiso       1.00
      C196          C  0.2677432  0.1711397  0.3883219    0.00000       Uiso       1.00
      C197          C  0.2614039  0.1631926  0.3542652    0.00000       Uiso       1.00
      C198          C  0.2113528  0.0946685  0.3330248    0.00000       Uiso       1.00
      C199          C  0.2300842  0.1200713  0.3513478    0.00000       Uiso       1.00
      C200          C  0.2362221  0.1277386  0.3854912    0.00000       Uiso       1.00
      C201          C  0.2428439  0.1380226  0.3360978    0.00000       Uiso       1.00
      C202          C  0.2549776  0.1531817  0.4035157    0.00000       Uiso       1.00
        O7          O  0.2288325  0.1164974  0.4305368    0.00000       Uiso       1.00
      H105          H  0.1370749  0.9915261  0.3636220    0.00000       Uiso       1.00
      H106          H  0.1965850  0.0721759  0.4242230    0.00000       Uiso       1.00
      H107          H  0.1752142  0.0455026  0.3043630    0.00000       Uiso       1.00
      H108          H  0.2893773  0.1999303  0.4330047    0.00000       Uiso       1.00
      C203          C  0.1334081  0.9870732  0.3377518    0.00000       Uiso       1.00
        N8          N  0.1481287  0.0076531  0.3257545    0.00000       Uiso       1.00
      C204          C  0.1671710  0.0334450  0.3457662    0.00000       Uiso       1.00
      C205          C  0.1735102  0.0413921  0.3798229    0.00000       Uiso       1.00
      C206          C  0.2235613  0.1099162  0.4010633    0.00000       Uiso       1.00
      C207          C  0.2048299  0.0845134  0.3827403    0.00000       Uiso       1.00
      C208          C  0.1986920  0.0768461  0.3485968    0.00000       Uiso       1.00
      C209          C  0.1920702  0.0665621  0.3979903    0.00000       Uiso       1.00
      C210          C  0.1799365  0.0514030  0.3305724    0.00000       Uiso       1.00
        O8          O  0.2060816  0.0880873  0.3035512    0.00000       Uiso       1.00
      H109          H  0.2978389  0.2130579  0.3704661    0.00000       Uiso       1.00
      H110          H  0.2383291  0.1324088  0.3098651    0.00000       Uiso       1.00
      H111          H  0.2596999  0.1590821  0.4297251    0.00000       Uiso       1.00
      H112          H  0.1455368  0.0046544  0.3010834    0.00000       Uiso       1.00
       Br1         Br  0.2719325  0.5769036  0.4584329    0.00000       Uiso       1.00
       Br2         Br  0.1360888  0.6144120  0.2547782    0.00000       Uiso       1.00
       Br3         Br  0.2796481  0.1889787  0.3273686    0.00000       Uiso       1.00
       Br4         Br  0.1552660  0.0156060  0.4067195    0.00000       Uiso       1.00
