data_78
_audit_creation_date              0000-00-00
_audit_creation_method            'LanYouShi'
_symmetry_space_group_name_H-M    'P1'
_cell_length_a                    65.0840988
_cell_length_b                    49.3731995
_cell_length_c                    49.3984985
_cell_angle_alpha                 79.7779999
_cell_angle_beta                  116.4907990
_cell_angle_gamma                 116.5562973
loop_
_atom_site_label
_atom_site_type_symbol
_atom_site_fract_x
_atom_site_fract_y
_atom_site_fract_z
_atom_site_U_iso_or_equiv
_atom_site_adp_type
_atom_site_occupancy
        C1          C  0.6767741  0.3990680  0.6091687    0.00000       Uiso       1.00
        C2          C  0.6674405  0.4064901  0.5787230    0.00000       Uiso       1.00
        C3          C  0.6478389  0.4165046  0.5667200    0.00000       Uiso       1.00
        C4          C  0.6662704  0.4012654  0.6275088    0.00000       Uiso       1.00
        C5          C  0.6466027  0.4110735  0.6155716    0.00000       Uiso       1.00
        C6          C  0.6369802  0.4190931  0.5849060    0.00000       Uiso       1.00
        H1          H  0.3672827  0.4014819  0.2782689    0.00000       Uiso       1.00
        H2          H  0.3592051  0.3684134  0.5845757    0.00000       Uiso       1.00
        H3          H  0.6736114  0.3952282  0.6523730    0.00000       Uiso       1.00
        H4          H  0.6757448  0.4047543  0.5634221    0.00000       Uiso       1.00
        C7          C  0.3310378  0.4304842  0.2187038    0.00000       Uiso       1.00
        C8          C  0.3409693  0.4100085  0.2359671    0.00000       Uiso       1.00
        C9          C  0.3598248  0.4178153  0.2658876    0.00000       Uiso       1.00
       C10          C  0.3401367  0.4589568  0.2313364    0.00000       Uiso       1.00
       C11          C  0.3589201  0.4667979  0.2613760    0.00000       Uiso       1.00
       C12          C  0.3691810  0.4463559  0.2794016    0.00000       Uiso       1.00
        H5          H  0.6415246  0.4227546  0.5432453    0.00000       Uiso       1.00
        H6          H  0.6355830  0.7301270  0.5136091    0.00000       Uiso       1.00
        H7          H  0.3322933  0.4759634  0.2175499    0.00000       Uiso       1.00
        H8          H  0.3338114  0.3867163  0.2259929    0.00000       Uiso       1.00
       C13          C  0.3219154  0.3897488  0.5990750    0.00000       Uiso       1.00
       C14          C  0.3314858  0.4203264  0.5920517    0.00000       Uiso       1.00
       C15          C  0.3512839  0.4325421  0.5824248    0.00000       Uiso       1.00
       C16          C  0.3323184  0.3713781  0.5966824    0.00000       Uiso       1.00
       C17          C  0.3520544  0.3834898  0.5868653    0.00000       Uiso       1.00
       C18          C  0.3619779  0.4143879  0.5794355    0.00000       Uiso       1.00
        H9          H  0.6342160  0.7200765  0.6015422    0.00000       Uiso       1.00
       H10          H  0.6387343  0.4119690  0.6304306    0.00000       Uiso       1.00
       H11          H  0.3247842  0.3464061  0.6023946    0.00000       Uiso       1.00
       H12          H  0.3232661  0.4356531  0.5939515    0.00000       Uiso       1.00
       C19          C  0.6702824  0.7807057  0.5730646    0.00000       Uiso       1.00
       C20          C  0.6601141  0.7631817  0.5932704    0.00000       Uiso       1.00
       C21          C  0.6411926  0.7332128  0.5850460    0.00000       Uiso       1.00
       C22          C  0.6612841  0.7684064  0.5444845    0.00000       Uiso       1.00
       C23          C  0.6422946  0.7385749  0.5361238    0.00000       Uiso       1.00
       C24          C  0.6318627  0.7201677  0.5562593    0.00000       Uiso       1.00
       H13          H  0.3584032  0.4564263  0.5776939    0.00000       Uiso       1.00
       H14          H  0.3650534  0.4887535  0.2706406    0.00000       Uiso       1.00
       C25          C  0.4999998  0.4999995  0.4999996    0.00000       Uiso       1.00
       H15          H  0.6693208  0.7824091  0.5276948    0.00000       Uiso       1.00
       H16          H  0.6671874  0.7728831  0.6166456    0.00000       Uiso       1.00
       C26          C  0.6160235  0.4301723  0.5722159    0.00000       Uiso       1.00
       C27          C  0.5979739  0.4242067  0.5416557    0.00000       Uiso       1.00
       C28          C  0.5786014  0.4346465  0.5297953    0.00000       Uiso       1.00
       C29          C  0.6138659  0.4469127  0.5905967    0.00000       Uiso       1.00
       C30          C  0.5944553  0.4572254  0.5790844    0.00000       Uiso       1.00
       C31          C  0.5767820  0.4511423  0.5485737    0.00000       Uiso       1.00
       H17          H  0.6275661  0.4524655  0.6138628    0.00000       Uiso       1.00
       H18          H  0.5987290  0.4110509  0.5270560    0.00000       Uiso       1.00
       C32          C  0.3892441  0.4545155  0.3119113    0.00000       Uiso       1.00
       C33          C  0.3904439  0.4320963  0.3341949    0.00000       Uiso       1.00
       C34          C  0.4090240  0.4393979  0.3643998    0.00000       Uiso       1.00
       C35          C  0.4073874  0.4847253  0.3210763    0.00000       Uiso       1.00
       C36          C  0.4259278  0.4923605  0.3513025    0.00000       Uiso       1.00
       C37          C  0.4268048  0.4696283  0.3730299    0.00000       Uiso       1.00
       H19          H  0.4073666  0.5023894  0.3046060    0.00000       Uiso       1.00
       H20          H  0.3766284  0.4088859  0.3282682    0.00000       Uiso       1.00
       C38          C  0.3830736  0.4275501  0.5685338    0.00000       Uiso       1.00
       C39          C  0.3845047  0.4513396  0.5476384    0.00000       Uiso       1.00
       C40          C  0.4040398  0.4637832  0.5374442    0.00000       Uiso       1.00
       C41          C  0.4019835  0.4165277  0.5788172    0.00000       Uiso       1.00
       C42          C  0.4214914  0.4286010  0.5685682    0.00000       Uiso       1.00
       C43          C  0.4225787  0.4523569  0.5478781    0.00000       Uiso       1.00
       H21          H  0.4017932  0.3987505  0.5951700    0.00000       Uiso       1.00
       H22          H  0.3701459  0.4599588  0.5387831    0.00000       Uiso       1.00
       C44          C  0.6116551  0.6877660  0.5473348    0.00000       Uiso       1.00
       C45          C  0.5926545  0.6745464  0.5584341    0.00000       Uiso       1.00
       C46          C  0.5739771  0.6443952  0.5503169    0.00000       Uiso       1.00
       C47          C  0.6111766  0.6696545  0.5275754    0.00000       Uiso       1.00
       C48          C  0.5924732  0.6395997  0.5190746    0.00000       Uiso       1.00
       C49          C  0.5738320  0.6268765  0.5305127    0.00000       Uiso       1.00
       H23          H  0.6256410  0.6786882  0.5191023    0.00000       Uiso       1.00
       H24          H  0.5921265  0.6878294  0.5731437    0.00000       Uiso       1.00
       C50          C  0.5553886  0.6313233  0.5617255    0.00000       Uiso       1.00
       C51          C  0.5371314  0.6012680  0.5539022    0.00000       Uiso       1.00
       C52          C  0.4436590  0.5224388  0.3602973    0.00000       Uiso       1.00
       C53          C  0.4617772  0.5299097  0.3904120    0.00000       Uiso       1.00
       H25          H  0.4434059  0.5403005  0.3440276    0.00000       Uiso       1.00
       H26          H  0.4750039  0.5533555  0.3966036    0.00000       Uiso       1.00
       H27          H  0.5550729  0.6443267  0.5769302    0.00000       Uiso       1.00
       H28          H  0.5232262  0.5918397  0.5633209    0.00000       Uiso       1.00
       C54          C  0.5573767  0.4617786  0.5367684    0.00000       Uiso       1.00
       C55          C  0.5400007  0.4562344  0.5061274    0.00000       Uiso       1.00
       C56          C  0.5212124  0.4676130  0.4942899    0.00000       Uiso       1.00
       C57          C  0.5556350  0.4783501  0.5555134    0.00000       Uiso       1.00
       C58          C  0.5365919  0.4892363  0.5435469    0.00000       Uiso       1.00
       C59          C  0.5188126  0.4841335  0.5127438    0.00000       Uiso       1.00
       H29          H  0.4643849  0.4444887  0.4720047    0.00000       Uiso       1.00
       H30          H  0.4921639  0.4537082  0.5432622    0.00000       Uiso       1.00
       C60          C  0.4453704  0.4771674  0.4034981    0.00000       Uiso       1.00
       C61          C  0.4461708  0.4544618  0.4252089    0.00000       Uiso       1.00
       C62          C  0.4643760  0.4621586  0.4554902    0.00000       Uiso       1.00
       C63          C  0.4628430  0.5074611  0.4123058    0.00000       Uiso       1.00
       C64          C  0.4807760  0.5149584  0.4428113    0.00000       Uiso       1.00
       C65          C  0.4822190  0.4924802  0.4651654    0.00000       Uiso       1.00
       H31          H  0.5090722  0.4641370  0.4703956    0.00000       Uiso       1.00
       H32          H  0.5372331  0.5354229  0.4802162    0.00000       Uiso       1.00
       C66          C  0.4421215  0.4645537  0.5374221    0.00000       Uiso       1.00
       C67          C  0.4431348  0.4882054  0.5166711    0.00000       Uiso       1.00
       C68          C  0.4623296  0.4998790  0.5060285    0.00000       Uiso       1.00
       C69          C  0.4603746  0.4527567  0.5473669    0.00000       Uiso       1.00
       C70          C  0.4793136  0.4643565  0.5362222    0.00000       Uiso       1.00
       C71          C  0.4809833  0.4884556  0.5155117    0.00000       Uiso       1.00
       H33          H  0.5057668  0.5435539  0.5373909    0.00000       Uiso       1.00
       H34          H  0.5358529  0.5024479  0.5581477    0.00000       Uiso       1.00
       C72          C  0.5551318  0.5965020  0.5223099    0.00000       Uiso       1.00
       C73          C  0.5367869  0.5835456  0.5341934    0.00000       Uiso       1.00
       C74          C  0.5187020  0.5530633  0.5266698    0.00000       Uiso       1.00
       C75          C  0.5550567  0.5789885  0.5026097    0.00000       Uiso       1.00
       C76          C  0.5367003  0.5487310  0.4949354    0.00000       Uiso       1.00
       C77          C  0.5179847  0.5349269  0.5065783    0.00000       Uiso       1.00
       H35          H  0.4625236  0.5176631  0.4896298    0.00000       Uiso       1.00
       H36          H  0.4929954  0.5385853  0.4489267    0.00000       Uiso       1.00
       C78          C  0.4590882  0.4290832  0.5680187    0.00000       Uiso       1.00
       C79          C  0.4399934  0.4172814  0.5785942    0.00000       Uiso       1.00
       C80          C  0.4246075  0.4994860  0.5065318    0.00000       Uiso       1.00
       C81          C  0.4052978  0.4874068  0.5167509    0.00000       Uiso       1.00
       C82          C  0.5420117  0.4397379  0.4876491    0.00000       Uiso       1.00
       C83          C  0.5609648  0.4289586  0.4993605    0.00000       Uiso       1.00
       C84          C  0.5733004  0.4841616  0.5859221    0.00000       Uiso       1.00
       C85          C  0.5924760  0.4737700  0.5975415    0.00000       Uiso       1.00
       C86          C  0.5736741  0.5919691  0.4912554    0.00000       Uiso       1.00
       C87          C  0.5921569  0.6218634  0.4994143    0.00000       Uiso       1.00
       C88          C  0.4284089  0.4243889  0.4162991    0.00000       Uiso       1.00
       C89          C  0.4100590  0.4169638  0.3863018    0.00000       Uiso       1.00
       H37          H  0.4285816  0.4065430  0.4326165    0.00000       Uiso       1.00
       H38          H  0.3965850  0.3935953  0.3802348    0.00000       Uiso       1.00
       H39          H  0.3912568  0.4965283  0.5083731    0.00000       Uiso       1.00
       H40          H  0.4249301  0.5175931  0.4904808    0.00000       Uiso       1.00
       H41          H  0.4729017  0.4196372  0.5760183    0.00000       Uiso       1.00
       H42          H  0.4395949  0.3990776  0.5945167    0.00000       Uiso       1.00
       H43          H  0.6058488  0.4787629  0.6210335    0.00000       Uiso       1.00
       H44          H  0.5724101  0.4969585  0.6007612    0.00000       Uiso       1.00
       H45          H  0.5288804  0.4351625  0.4640288    0.00000       Uiso       1.00
       H46          H  0.5619410  0.4163015  0.4844969    0.00000       Uiso       1.00
       H47          H  0.6062948  0.6311153  0.4903697    0.00000       Uiso       1.00
       H48          H  0.5740635  0.5789124  0.4761540    0.00000       Uiso       1.00
       C90          C  0.8330154  0.3649437  0.6559939    0.00000       Uiso       1.00
       C91          C  0.8413818  0.3609002  0.6360416    0.00000       Uiso       1.00
       C92          C  0.8599570  0.3493609  0.6463819    0.00000       Uiso       1.00
       C93          C  0.8434731  0.3578378  0.6863712    0.00000       Uiso       1.00
       C94          C  0.8621241  0.3464911  0.6968167    0.00000       Uiso       1.00
       C95          C  0.8707418  0.3418173  0.6770446    0.00000       Uiso       1.00
       H49          H  0.1318590  0.3685938  0.6497029    0.00000       Uiso       1.00
       H50          H  0.1457196  0.3495226  0.9664440    0.00000       Uiso       1.00
       H51          H  0.8369155  0.3610693  0.7029714    0.00000       Uiso       1.00
       H52          H  0.8331025  0.3666530  0.6112059    0.00000       Uiso       1.00
       C96          C  0.1651687  0.3427218  0.6322679    0.00000       Uiso       1.00
       C97          C  0.1566628  0.3626688  0.6360042    0.00000       Uiso       1.00
       C98          C  0.1382081  0.3525209  0.6476460    0.00000       Uiso       1.00
       C99          C  0.1550386  0.3124622  0.6399906    0.00000       Uiso       1.00
      C100          C  0.1366546  0.3022469  0.6518369    0.00000       Uiso       1.00
      C101          C  0.1278347  0.3220824  0.6560055    0.00000       Uiso       1.00
       H53          H  0.8655167  0.3458383  0.6301363    0.00000       Uiso       1.00
       H54          H  0.8560095  0.0305444  0.6553630    0.00000       Uiso       1.00
       H55          H  0.1617134  0.2958667  0.6370171    0.00000       Uiso       1.00
       H56          H  0.1646747  0.3874077  0.6297488    0.00000       Uiso       1.00
      C102          C  0.1814730  0.3188440  0.0246754    0.00000       Uiso       1.00
      C103          C  0.1705003  0.2898183  0.0121203    0.00000       Uiso       1.00
      C104          C  0.1503482  0.2819723  0.9829966    0.00000       Uiso       1.00
      C105          C  0.1721244  0.3400248  0.0081339    0.00000       Uiso       1.00
      C106          C  0.1520357  0.3323092  0.9788656    0.00000       Uiso       1.00
      C107          C  0.1406953  0.3030769  0.9655674    0.00000       Uiso       1.00
       H57          H  0.8590817  0.0258029  0.7451816    0.00000       Uiso       1.00
       H58          H  0.8700104  0.3417572  0.7205985    0.00000       Uiso       1.00
       H59          H  0.1808088  0.3637791  0.0180611    0.00000       Uiso       1.00
       H60          H  0.1778475  0.2722380  0.0253295    0.00000       Uiso       1.00
      C108          C  0.8203527  0.9734972  0.6870748    0.00000       Uiso       1.00
      C109          C  0.8314648  0.9866195  0.7158460    0.00000       Uiso       1.00
      C110          C  0.8513663  0.0160911  0.7229260    0.00000       Uiso       1.00
      C111          C  0.8293735  0.9896820  0.6655164    0.00000       Uiso       1.00
      C112          C  0.8493332  0.0190230  0.6725518    0.00000       Uiso       1.00
      C113          C  0.8607458  0.0330322  0.7013925    0.00000       Uiso       1.00
       H61          H  0.1421376  0.2591142  0.9743441    0.00000       Uiso       1.00
       H62          H  0.1297028  0.2788513  0.6582513    0.00000       Uiso       1.00
      C114          C  0.0000055  0.2500041  0.7500018    0.00000       Uiso       1.00
       H63          H  0.8205720  0.9792916  0.6419625    0.00000       Uiso       1.00
       H64          H  0.8243850  0.9737080  0.7337279    0.00000       Uiso       1.00
      C115          C  0.8905851  0.3290692  0.6883053    0.00000       Uiso       1.00
      C116          C  0.9081508  0.3375433  0.6754397    0.00000       Uiso       1.00
      C117          C  0.9264827  0.3255749  0.6857483    0.00000       Uiso       1.00
      C118          C  0.8921493  0.3081978  0.7121017    0.00000       Uiso       1.00
      C119          C  0.9105296  0.2962962  0.7227869    0.00000       Uiso       1.00
      C120          C  0.9277325  0.3049448  0.7095496    0.00000       Uiso       1.00
       H65          H  0.8787677  0.3006890  0.7221025    0.00000       Uiso       1.00
       H66          H  0.9078420  0.3538194  0.6575890    0.00000       Uiso       1.00
      C121          C  0.1082147  0.3113232  0.6690575    0.00000       Uiso       1.00
      C122          C  0.1084407  0.3310204  0.6869817    0.00000       Uiso       1.00
      C123          C  0.0902847  0.3213046  0.6991287    0.00000       Uiso       1.00
      C124          C  0.0890780  0.2813141  0.6638128    0.00000       Uiso       1.00
      C125          C  0.0709450  0.2712417  0.6760775    0.00000       Uiso       1.00
      C126          C  0.0714950  0.2913064  0.6937287    0.00000       Uiso       1.00
       H67          H  0.0880082  0.2657596  0.6498110    0.00000       Uiso       1.00
       H68          H  0.1230376  0.3539070  0.6920188    0.00000       Uiso       1.00
      C127          C  0.1192057  0.2946741  0.9339001    0.00000       Uiso       1.00
      C128          C  0.1163516  0.2737432  0.9147944    0.00000       Uiso       1.00
      C129          C  0.0964379  0.2657138  0.8854093    0.00000       Uiso       1.00
      C130          C  0.1013336  0.3074410  0.9223810    0.00000       Uiso       1.00
      C131          C  0.0814639  0.2998014  0.8929099    0.00000       Uiso       1.00
      C132          C  0.0789516  0.2788147  0.8743774    0.00000       Uiso       1.00
       H69          H  0.1026144  0.3230990  0.9364709    0.00000       Uiso       1.00
       H70          H  0.1298953  0.2639676  0.9225101    0.00000       Uiso       1.00
      C133          C  0.8820176  0.0649434  0.7087460    0.00000       Uiso       1.00
      C134          C  0.9014573  0.0737116  0.7383597    0.00000       Uiso       1.00
      C135          C  0.9211302  0.1033949  0.7452586    0.00000       Uiso       1.00
      C136          C  0.8830867  0.0870468  0.6861465    0.00000       Uiso       1.00
      C137          C  0.9027748  0.1166911  0.6926959    0.00000       Uiso       1.00
      C138          C  0.9218427  0.1249442  0.7223504    0.00000       Uiso       1.00
       H71          H  0.8683376  0.0814460  0.6634137    0.00000       Uiso       1.00
       H72          H  0.9015386  0.0573214  0.7560997    0.00000       Uiso       1.00
      C139          C  0.9401628  0.1120239  0.7747704    0.00000       Uiso       1.00
      C140          C  0.9594228  0.1416257  0.7815346    0.00000       Uiso       1.00
      C141          C  0.0522165  0.2413314  0.6710795    0.00000       Uiso       1.00
      C142          C  0.0345042  0.2313801  0.6836567    0.00000       Uiso       1.00
       H73          H  0.0513679  0.2254998  0.6575637    0.00000       Uiso       1.00
       H74          H  0.0204773  0.2081086  0.6795597    0.00000       Uiso       1.00
       H75          H  0.9400564  0.0958744  0.7927445    0.00000       Uiso       1.00
       H76          H  0.9736558  0.1475664  0.8045720    0.00000       Uiso       1.00
      C143          C  0.9460877  0.2927578  0.7199811    0.00000       Uiso       1.00
      C144          C  0.9629709  0.3009169  0.7063780    0.00000       Uiso       1.00
      C145          C  0.9806843  0.2880638  0.7162338    0.00000       Uiso       1.00
      C146          C  0.9472573  0.2720672  0.7436773    0.00000       Uiso       1.00
      C147          C  0.9652427  0.2597066  0.7535953    0.00000       Uiso       1.00
      C148          C  0.9824980  0.2673693  0.7403296    0.00000       Uiso       1.00
       H77          H  0.0372451  0.3066751  0.7506686    0.00000       Uiso       1.00
       H78          H  0.0105515  0.2894714  0.7952583    0.00000       Uiso       1.00
      C149          C  0.0533455  0.2812966  0.7061988    0.00000       Uiso       1.00
      C150          C  0.0539691  0.3013241  0.7239194    0.00000       Uiso       1.00
      C151          C  0.0361628  0.2911240  0.7366098    0.00000       Uiso       1.00
      C152          C  0.0348576  0.2511526  0.7013211    0.00000       Uiso       1.00
      C153          C  0.0173311  0.2410773  0.7145008    0.00000       Uiso       1.00
      C154          C  0.0173224  0.2608632  0.7322269    0.00000       Uiso       1.00
       H79          H  0.9924259  0.2937744  0.7042499    0.00000       Uiso       1.00
       H80          H  0.9614767  0.2225969  0.6955061    0.00000       Uiso       1.00
      C155          C  0.0590386  0.2710876  0.8446767    0.00000       Uiso       1.00
      C156          C  0.0566033  0.2502075  0.8261447    0.00000       Uiso       1.00
      C157          C  0.0370544  0.2429993  0.7965425    0.00000       Uiso       1.00
      C158          C  0.0418439  0.2846106  0.8333916    0.00000       Uiso       1.00
      C159          C  0.0225425  0.2775231  0.8035381    0.00000       Uiso       1.00
      C160          C  0.0194420  0.2562777  0.7844154    0.00000       Uiso       1.00
       H81          H  0.9927617  0.1993207  0.7890399    0.00000       Uiso       1.00
       H82          H  0.9655330  0.2433748  0.7714390    0.00000       Uiso       1.00
      C161          C  0.9415474  0.1548704  0.7291502    0.00000       Uiso       1.00
      C162          C  0.9603422  0.1633381  0.7589054    0.00000       Uiso       1.00
      C163          C  0.9794581  0.1933604  0.7657231    0.00000       Uiso       1.00
      C164          C  0.9421925  0.1764078  0.7062744    0.00000       Uiso       1.00
      C165          C  0.9615617  0.2061782  0.7132651    0.00000       Uiso       1.00
      C166          C  0.9807579  0.2155075  0.7430359    0.00000       Uiso       1.00
       H83          H  0.0357691  0.2273427  0.7824029    0.00000       Uiso       1.00
       H84          H  0.0042827  0.2174673  0.7114349    0.00000       Uiso       1.00
      C167          C  0.0445468  0.3054858  0.8521115    0.00000       Uiso       1.00
      C168          C  0.0640028  0.3128549  0.8815172    0.00000       Uiso       1.00
      C169          C  0.0740893  0.2372097  0.8374422    0.00000       Uiso       1.00
      C170          C  0.0937646  0.2448928  0.8666694    0.00000       Uiso       1.00
      C171          C  0.9615372  0.3215276  0.6826780    0.00000       Uiso       1.00
      C172          C  0.9436314  0.3338061  0.6726126    0.00000       Uiso       1.00
      C173          C  0.9300739  0.2637168  0.7567752    0.00000       Uiso       1.00
      C174          C  0.9119295  0.2756441  0.7464389    0.00000       Uiso       1.00
      C175          C  0.9231367  0.1678691  0.6767725    0.00000       Uiso       1.00
      C176          C  0.9036678  0.1384141  0.6700838    0.00000       Uiso       1.00
      C177          C  0.0727286  0.3312093  0.7290381    0.00000       Uiso       1.00
      C178          C  0.0906677  0.3410554  0.7168368    0.00000       Uiso       1.00
       H85          H  0.0736560  0.3470033  0.7426915    0.00000       Uiso       1.00
       H86          H  0.1049353  0.3641855  0.7213389    0.00000       Uiso       1.00
       H87          H  0.1069789  0.2345656  0.8746132    0.00000       Uiso       1.00
       H88          H  0.0726671  0.2211792  0.8235720    0.00000       Uiso       1.00
       H89          H  0.0315661  0.3161778  0.8439727    0.00000       Uiso       1.00
       H90          H  0.0655024  0.3289955  0.8953218    0.00000       Uiso       1.00
       H91          H  0.8988994  0.2686257  0.7569324    0.00000       Uiso       1.00
       H92          H  0.9305362  0.2477509  0.7749584    0.00000       Uiso       1.00
       H93          H  0.9743084  0.3281732  0.6718613    0.00000       Uiso       1.00
       H94          H  0.9430778  0.3496448  0.6543345    0.00000       Uiso       1.00
       H95          H  0.8892204  0.1326308  0.6471515    0.00000       Uiso       1.00
       H96          H  0.9231747  0.1840684  0.6588163    0.00000       Uiso       1.00
      C179          C  0.7327189  0.8592146  0.6500385    0.00000       Uiso       1.00
      C180          C  0.7541398  0.8865536  0.6604724    0.00000       Uiso       1.00
       H97          H  0.7616102  0.8921922  0.6840307    0.00000       Uiso       1.00
        N1          N  0.6909919  0.8098141  0.5823776    0.00000       Uiso       1.00
      C181          C  0.7652677  0.9052804  0.6409801    0.00000       Uiso       1.00
      C182          C  0.7215962  0.8497489  0.6198837    0.00000       Uiso       1.00
      C183          C  0.7004043  0.8200538  0.6096486    0.00000       Uiso       1.00
       H98          H  0.6926097  0.8066149  0.6252754    0.00000       Uiso       1.00
        N2          N  0.7987538  0.9450232  0.6790537    0.00000       Uiso       1.00
      C184          C  0.7874635  0.9341158  0.6517017    0.00000       Uiso       1.00
       H99          H  0.7943691  0.9465219  0.6350339    0.00000       Uiso       1.00
      C185          C  0.7320823  0.8676585  0.6001676    0.00000       Uiso       1.00
      C186          C  0.7535009  0.8950269  0.6104280    0.00000       Uiso       1.00
      H100          H  0.7238378  0.8602637  0.5768104    0.00000       Uiso       1.00
      H101          H  0.7604588  0.9074628  0.5938398    0.00000       Uiso       1.00
      C187          C  0.7432178  0.3873182  0.5998662    0.00000       Uiso       1.00
      C188          C  0.7652152  0.3824695  0.6122300    0.00000       Uiso       1.00
      H102          H  0.7737529  0.3851230  0.5970771    0.00000       Uiso       1.00
        N3          N  0.6981035  0.3917354  0.6219292    0.00000       Uiso       1.00
      C189          C  0.7755460  0.3748582  0.6429896    0.00000       Uiso       1.00
      C190          C  0.7307159  0.3845465  0.6176163    0.00000       Uiso       1.00
      C191          C  0.7088571  0.3919416  0.6052468    0.00000       Uiso       1.00
      H103          H  0.7017091  0.3976402  0.5817740    0.00000       Uiso       1.00
        N4          N  0.8109279  0.3707885  0.6410766    0.00000       Uiso       1.00
      C192          C  0.7983540  0.3693345  0.6558982    0.00000       Uiso       1.00
      H104          H  0.8045620  0.3637210  0.6794516    0.00000       Uiso       1.00
      C193          C  0.7403921  0.3770809  0.6479191    0.00000       Uiso       1.00
      C194          C  0.7623797  0.3721966  0.6604501    0.00000       Uiso       1.00
      H105          H  0.7310597  0.3753709  0.6620471    0.00000       Uiso       1.00
      H106          H  0.7686428  0.3666090  0.6839802    0.00000       Uiso       1.00
      C195          C  0.2554565  0.3990571  0.6107851    0.00000       Uiso       1.00
      C196          C  0.2333516  0.3866528  0.6154333    0.00000       Uiso       1.00
      H107          H  0.2249254  0.4018842  0.6129510    0.00000       Uiso       1.00
        N5          N  0.3004605  0.3769161  0.6061984    0.00000       Uiso       1.00
      C197          C  0.2227810  0.3557603  0.6226398    0.00000       Uiso       1.00
      C198          C  0.2678301  0.3812142  0.6133617    0.00000       Uiso       1.00
      C199          C  0.2898123  0.3936550  0.6061723    0.00000       Uiso       1.00
      H108          H  0.2971427  0.4172293  0.6007809    0.00000       Uiso       1.00
        N6          N  0.1873859  0.3576965  0.6266564    0.00000       Uiso       1.00
      C200          C  0.1998579  0.3428037  0.6279535    0.00000       Uiso       1.00
      H109          H  0.1934676  0.3191478  0.6332607    0.00000       Uiso       1.00
      C201          C  0.2579177  0.3507800  0.6204295    0.00000       Uiso       1.00
      C202          C  0.2358214  0.3382077  0.6251113    0.00000       Uiso       1.00
      H110          H  0.2671511  0.3365853  0.6219841    0.00000       Uiso       1.00
      H111          H  0.2293763  0.3145756  0.6303928    0.00000       Uiso       1.00
      C203          C  0.2686164  0.3544168  0.1393224    0.00000       Uiso       1.00
      C204          C  0.2473030  0.3443308  0.1118764    0.00000       Uiso       1.00
      H112          H  0.2397212  0.3208073  0.1059534    0.00000       Uiso       1.00
        N7          N  0.3104539  0.4215411  0.1895071    0.00000       Uiso       1.00
      C205          C  0.2364150  0.3641078  0.0934026    0.00000       Uiso       1.00
      C206          C  0.2798675  0.3844971  0.1491504    0.00000       Uiso       1.00
      C207          C  0.3009359  0.3943563  0.1789445    0.00000       Uiso       1.00
      H113          H  0.3085482  0.3785222  0.1921819    0.00000       Uiso       1.00
        N8          N  0.2029421  0.3264984  0.0532253    0.00000       Uiso       1.00
      C208          C  0.2143343  0.3537528  0.0644586    0.00000       Uiso       1.00
      H114          H  0.2076110  0.3706159  0.0522659    0.00000       Uiso       1.00
      C209          C  0.2696176  0.4044875  0.1314959    0.00000       Uiso       1.00
      C210          C  0.2483077  0.3945756  0.1040228    0.00000       Uiso       1.00
      H115          H  0.2779612  0.4277869  0.1391705    0.00000       Uiso       1.00
      H116          H  0.2415318  0.4113593  0.0917993    0.00000       Uiso       1.00
      C211          C  0.7219946  0.8398384  0.6716805    0.00000       Uiso       1.00
        F1          F  0.6972296  0.8356907  0.6614990    0.00000       Uiso       1.00
        F2          F  0.7356660  0.8531696  0.7003513    0.00000       Uiso       1.00
        F3          F  0.7226285  0.8119708  0.6732433    0.00000       Uiso       1.00
      C212          C  0.7333565  0.3960310  0.5674152    0.00000       Uiso       1.00
        F4          F  0.7090655  0.3747681  0.5518389    0.00000       Uiso       1.00
        F5          F  0.7483602  0.3975535  0.5538009    0.00000       Uiso       1.00
        F6          F  0.7329802  0.4240322  0.5659877    0.00000       Uiso       1.00
      C213          C  0.2655752  0.4316584  0.6024988    0.00000       Uiso       1.00
        F7          F  0.2898291  0.4469645  0.6239488    0.00000       Uiso       1.00
        F8          F  0.2506662  0.4453471  0.6011143    0.00000       Uiso       1.00
        F9          F  0.2661369  0.4334235  0.5745757    0.00000       Uiso       1.00
      C214          C  0.2790835  0.3324788  0.1584177    0.00000       Uiso       1.00
       F10          F  0.3038855  0.3425833  0.1627256    0.00000       Uiso       1.00
       F11          F  0.2653173  0.3039366  0.1447456    0.00000       Uiso       1.00
       F12          F  0.2782642  0.3305803  0.1862055    0.00000       Uiso       1.00
